0
     RDKit          3D

  6  6  0  0  0  0  0  0  0  0999 V2000
   18.5865   -0.4516   17.8557 C   0  0  0  0  0  0  0  0  0  0  0  0
   18.4881   -1.5571   17.2241 C   0  0  0  0  0  0  0  0  0  0  0  0
   18.0208   -1.7924   15.9605 C   0  0  0  0  0  0  0  0  0  0  0  0
   17.9312    0.5885   17.1645 C   0  0  0  0  0  0  0  0  0  0  0  0
   17.4002    0.4682   15.9196 C   0  0  0  0  0  0  0  0  0  0  0  0
   17.5155   -0.7598   15.2797 C   0  0  0  0  0  0  0  0  0  0  0  0
  1  2  1  0
  2  3  1  0
  1  4  1  0
  4  5  1  0
  3  6  1  0
  5  6  1  0
M  END
$$$$
1
     RDKit          3D

  7  7  0  0  0  0  0  0  0  0999 V2000
   18.7167   -1.7873   17.2486 C   0  0  0  0  0  0  0  0  0  0  0  0
   17.9033   -0.7595   17.6024 C   0  0  0  0  0  0  0  0  0  0  0  0
   17.2053   -0.0782   16.5811 C   0  0  0  0  0  0  0  0  0  0  0  0
   16.3807    1.0631   16.9983 N   0  0  0  0  0  0  0  0  0  0  0  0
   18.9088   -2.0805   15.8443 C   0  0  0  0  0  0  0  0  0  0  0  0
   18.3244   -1.2999   14.8904 C   0  0  0  0  0  0  0  0  0  0  0  0
   17.3447   -0.3339   15.3050 C   0  0  0  0  0  0  0  0  0  0  0  0
  1  2  1  0
  2  3  1  0
  3  4  1  0
  1  5  1  0
  5  6  1  0
  3  7  1  0
  6  7  1  0
M  END
$$$$
10
     RDKit          3D

 16 17  0  0  0  0  0  0  0  0999 V2000
   21.0172    0.6204   11.3140 O   0  0  0  0  0  0  0  0  0  0  0  0
   19.8020    0.5228   11.0127 C   0  0  0  0  0  0  0  0  0  0  0  0
   19.1865   -0.6465   11.2049 C   0  0  1  0  0  0  0  0  0  0  0  0
   19.1955    1.7000   10.5110 C   0  0  1  0  0  0  0  0  0  0  0  0
   19.8579    3.0060   10.3749 N   0  0  0  0  0  0  0  0  0  0  0  0
   17.8199   -0.7264   10.8409 C   0  0  0  0  0  0  0  0  0  0  0  0
   19.7102   -1.9006   11.6243 C   0  0  0  0  0  0  0  0  0  0  0  0
   19.1129    4.1911   10.3993 C   0  0  0  0  0  0  0  0  0  0  0  0
   17.9702    1.6908    9.8689 C   0  0  1  0  0  0  0  0  0  0  0  0
   17.7890    4.1509    9.7913 C   0  0  2  0  0  0  0  0  0  0  0  0
   17.1465    0.4874   10.1942 C   0  0  1  0  0  0  0  0  0  0  0  0
   17.2658    2.7558    9.2687 C   0  0  0  0  0  0  0  0  0  0  0  0
   15.9547    0.3028    9.5979 O   0  0  0  0  0  0  0  0  0  0  0  0
   20.1639   -2.6527   10.6056 O   0  0  0  0  0  0  0  0  0  0  0  0
   17.4303    5.2346    9.2195 N   0  0  0  0  0  0  0  0  0  0  0  0
   19.7536   -2.1870   12.8598 O   0  0  0  0  0  0  0  0  0  0  0  0
  1  2  1  0
  2  3  1  0
  2  4  1  0
  4  5  1  6
  3  6  1  0
  3  7  1  6
  5  8  1  0
  4  9  1  0
  8 10  1  0
  6 11  1  0
  9 11  1  0
  9 12  1  1
 10 12  1  0
 11 13  1  6
  7 14  1  0
 10 15  1  6
  7 16  2  0
M  END
$$$$
100
     RDKit          3D

 33 39  0  0  0  0  0  0  0  0999 V2000
   16.6028   -4.4775    9.3104 C   0  0  0  0  0  0  0  0  0  0  0  0
   17.2116   -3.3166    9.2817 C   0  0  0  0  0  0  0  0  0  0  0  0
   18.2502   -2.8801    9.8692 C   0  0  0  0  0  0  0  0  0  0  0  0
   18.7433   -1.4733    9.7300 N   0  0  0  0  0  0  0  0  0  0  0  0
   18.2767   -0.7141    8.8425 C   0  0  1  0  0  0  0  0  0  0  0  0
   18.9311    0.6234    8.9293 C   0  0  1  0  0  0  0  0  0  0  0  0
   17.2002   -5.5159    9.0496 C   0  0  0  0  0  0  0  0  0  0  0  0
   17.4366   -1.0211    7.8308 O   0  0  0  0  0  0  0  0  0  0  0  0
   19.7513   -1.0286   10.8319 C   0  0  1  0  0  0  0  0  0  0  0  0
   17.5621   -0.4559    6.6497 C   0  0  0  0  0  0  0  0  0  0  0  0
   18.3790    1.6268    8.2054 O   0  0  0  0  0  0  0  0  0  0  0  0
   19.6916    0.3723   10.3652 C   0  0  1  0  0  0  0  0  0  0  0  0
   18.7045   -5.5549    9.5260 C   0  0  0  0  0  0  0  0  0  0  0  0
   19.1946   -4.2429    9.6142 C   0  0  0  0  0  0  0  0  0  0  0  0
   20.5275    1.2453   11.0570 C   0  0  1  0  0  0  0  0  0  0  0  0
   20.3147    2.6034   11.0336 N   0  0  0  0  0  0  0  0  0  0  0  0
   20.6061    0.7355   12.3586 O   0  0  0  0  0  0  0  0  0  0  0  0
   18.2877    0.9651    6.7745 C   0  0  2  0  0  0  0  0  0  0  0  0
   18.2186    1.9438    5.7803 C   0  0  1  0  0  0  0  0  0  0  0  0
   19.3056    0.3592   12.6074 C   0  0  2  0  0  0  0  0  0  0  0  0
   19.0923   -0.9376   12.1261 C   0  0  0  0  0  0  0  0  0  0  0  0
   18.1703    1.2737   12.4551 C   0  0  1  0  0  0  0  0  0  0  0  0
   17.2459    1.3135   13.4883 O   0  0  0  0  0  0  0  0  0  0  0  0
   18.1489    2.6842   12.1260 C   0  0  0  0  0  0  0  0  0  0  0  0
   19.1392    3.2069   11.3465 C   0  0  0  0  0  0  0  0  0  0  0  0
   17.1827   -0.8555    5.5044 C   0  0  0  0  0  0  0  0  0  0  0  0
   19.0601    4.6102   11.0083 C   0  0  0  0  0  0  0  0  0  0  0  0
   18.9799    3.1056    5.8741 F   0  0  0  0  0  0  0  0  0  0  0  0
   18.1084    1.3379    4.4579 C   0  0  0  0  0  0  0  0  0  0  0  0
   17.6318   -0.0326    4.3518 C   0  0  0  0  0  0  0  0  0  0  0  0
   17.0419    0.1550   14.5378 C   0  0  0  0  0  0  0  0  0  0  0  0
   17.1374    3.5316   12.2942 C   0  0  0  0  0  0  0  0  0  0  0  0
   17.5914    4.8482   11.6133 C   0  0  0  0  0  0  0  0  0  0  0  0
  1  2  1  0
  2  3  1  0
  3  4  1  0
  4  5  1  0
  5  6  1  0
  1  7  1  0
  5  8  1  6
  4  9  1  0
  8 10  1  0
  6 11  1  1
  6 12  1  0
  9 12  1  0
  7 13  1  0
  3 14  1  0
 13 14  1  0
 12 15  1  6
 15 16  1  1
 15 17  1  0
 10 18  1  0
 18 11  1  1
 18 19  1  0
 17 20  1  0
  9 21  1  1
 20 21  1  6
 20 22  1  0
 22 23  1  1
 22 24  1  0
 16 25  2  0
 24 25  1  0
 10 26  1  0
 25 27  1  0
 19 28  1  6
 19 29  1  0
 26 30  1  0
 29 30  1  0
 23 31  1  0
 24 32  2  0
 27 33  2  0
 32 33  1  0
M  END
$$$$
101
     RDKit          3D

 33 37  0  0  0  0  0  0  0  0999 V2000
   18.8579    1.8829    4.7669 C   0  0  0  0  0  0  0  0  0  0  0  0
   18.6818    1.4842    5.9171 C   0  0  2  0  0  0  0  0  0  0  0  0
   18.1017    0.2248    6.2468 C   0  0  1  0  0  0  0  0  0  0  0  0
   17.8160   -0.2171    7.5817 N   0  0  0  0  0  0  0  0  0  0  0  0
   18.9980    2.3385    7.0711 C   0  0  0  0  0  0  0  0  0  0  0  0
   17.4684   -0.8466    5.3240 C   0  0  0  0  0  0  0  0  0  0  0  0
   18.7487    2.0416    8.3173 C   0  0  0  0  0  0  0  0  0  0  0  0
   18.1176    0.7577    8.6480 C   0  0  2  0  0  0  0  0  0  0  0  0
   17.1940   -2.0408    5.8199 N   0  0  0  0  0  0  0  0  0  0  0  0
   17.9868    0.3232    9.9857 N   0  0  0  0  0  0  0  0  0  0  0  0
   17.5221   -0.4806    4.0450 O   0  0  0  0  0  0  0  0  0  0  0  0
   17.9596   -3.1635    5.4390 C   0  0  0  0  0  0  0  0  0  0  0  0
   18.9488    0.2522   10.8584 C   0  0  0  0  0  0  0  0  0  0  0  0
   16.7067   -0.3549   10.3055 C   0  0  0  0  0  0  0  0  0  0  0  0
   19.1451   -3.3719    6.2344 C   0  0  0  0  0  0  0  0  0  0  0  0
   18.6886   -3.5290    7.5540 C   0  0  2  0  0  0  0  0  0  0  0  0
   18.5939    0.0812   12.0585 O   0  0  0  0  0  0  0  0  0  0  0  0
   19.5039    0.1572   13.1856 C   0  0  0  0  0  0  0  0  0  0  0  0
   19.0623   -4.6105    8.3033 C   0  0  0  0  0  0  0  0  0  0  0  0
   20.2853    0.3617   10.5048 C   0  0  0  0  0  0  0  0  0  0  0  0
   18.8204   -0.0904   14.4405 C   0  0  2  0  0  0  0  0  0  0  0  0
   18.6311   -1.3234   14.9671 C   0  0  0  0  0  0  0  0  0  0  0  0
   18.8010   -4.7141    9.7624 C   0  0  0  0  0  0  0  0  0  0  0  0
   19.2247   -2.4138   14.5097 O   0  0  0  0  0  0  0  0  0  0  0  0
   18.0689    1.0782   14.9083 C   0  0  0  0  0  0  0  0  0  0  0  0
   17.2803    0.9410   16.1446 C   0  0  0  0  0  0  0  0  0  0  0  0
   17.2660   -0.2839   16.8028 C   0  0  0  0  0  0  0  0  0  0  0  0
   17.8042   -1.4689   16.1878 C   0  0  0  0  0  0  0  0  0  0  0  0
   17.5109   -4.3302   10.0527 C   0  0  0  0  0  0  0  0  0  0  0  0
   16.9789   -3.1194    9.3704 C   0  0  0  0  0  0  0  0  0  0  0  0
   17.6300   -2.7668    8.1926 C   0  0  0  0  0  0  0  0  0  0  0  0
   17.1584   -1.5100    7.5749 C   0  0  1  0  0  0  0  0  0  0  0  0
   21.2884    0.2096   11.4677 O   0  0  0  0  0  0  0  0  0  0  0  0
  2  1  1  6
  2  3  1  0
  3  4  1  0
  2  5  1  0
  3  6  1  6
  5  7  1  0
  4  8  1  0
  7  8  1  0
  6  9  1  0
  8 10  1  1
  6 11  2  0
  9 12  1  0
 10 13  1  0
 10 14  1  0
 12 15  1  0
 16 15  1  6
 13 17  1  0
 17 18  1  0
 16 19  1  0
 13 20  2  3
 21 18  1  6
 21 22  1  0
 19 23  1  0
 22 24  2  0
 21 25  1  0
 25 26  1  0
 26 27  1  0
 22 28  1  0
 27 28  1  0
 23 29  1  0
 29 30  1  0
 16 31  1  0
 30 31  1  0
  4 32  1  0
  9 32  1  0
 32 31  1  1
 20 33  1  0
M  END
$$$$
102
     RDKit          3D

 33 37  0  0  0  0  0  0  0  0999 V2000
   18.8579    1.8829    4.7669 C   0  0  0  0  0  0  0  0  0  0  0  0
   18.6818    1.4842    5.9171 C   0  0  2  0  0  0  0  0  0  0  0  0
   18.1017    0.2248    6.2468 C   0  0  1  0  0  0  0  0  0  0  0  0
   17.8160   -0.2171    7.5817 N   0  0  0  0  0  0  0  0  0  0  0  0
   18.9980    2.3385    7.0711 C   0  0  0  0  0  0  0  0  0  0  0  0
   17.4684   -0.8466    5.3240 C   0  0  0  0  0  0  0  0  0  0  0  0
   18.4773    0.9046    3.6128 C   0  0  0  0  0  0  0  0  0  0  0  0
   17.8940   -0.3526    3.9481 C   0  0  0  0  0  0  0  0  0  0  0  0
   18.7582    1.9174    8.3377 C   0  0  0  0  0  0  0  0  0  0  0  0
   19.0210    2.6538    9.4681 N   0  0  0  0  0  0  0  0  0  0  0  0
   18.1404    0.5893    8.6184 C   0  0  2  0  0  0  0  0  0  0  0  0
   18.3989    3.2753   10.3854 C   0  0  0  0  0  0  0  0  0  0  0  0
   18.0204    0.1389   10.0219 N   0  0  0  0  0  0  0  0  0  0  0  0
   16.8894   -0.2021   10.3494 C   0  0  0  0  0  0  0  0  0  0  0  0
   19.2385   -0.0754   10.7658 C   0  0  0  0  0  0  0  0  0  0  0  0
   15.9168   -0.2447    9.8160 O   0  0  0  0  0  0  0  0  0  0  0  0
   17.1396    3.4423   10.2361 O   0  0  0  0  0  0  0  0  0  0  0  0
   16.6597   -0.4713   11.9048 C   0  0  0  0  0  0  0  0  0  0  0  0
   18.9198    3.9600   11.5657 C   0  0  0  0  0  0  0  0  0  0  0  0
   19.4703    5.1742   11.3225 C   0  0  0  0  0  0  0  0  0  0  0  0
   20.4228   -0.1843   10.5726 C   0  0  0  0  0  0  0  0  0  0  0  0
   21.0309   -0.7592    9.3629 O   0  0  0  0  0  0  0  0  0  0  0  0
   18.5987   -0.3359   12.2064 C   0  0  1  0  0  0  0  0  0  0  0  0
   18.8321   -1.5584   12.8875 C   0  0  2  0  0  0  0  0  0  0  0  0
   18.7839    0.8456   13.1974 C   0  0  0  0  0  0  0  0  0  0  0  0
   19.1404   -2.7308   12.0948 O   0  0  0  0  0  0  0  0  0  0  0  0
   18.6330   -1.7473   14.2384 C   0  0  1  0  0  0  0  0  0  0  0  0
   18.8865   -2.9268   14.9563 O   0  0  0  0  0  0  0  0  0  0  0  0
   18.7371   -0.5153   15.1052 C   0  0  1  0  0  0  0  0  0  0  0  0
   18.6339    0.7463   14.4621 C   0  0  0  0  0  0  0  0  0  0  0  0
   18.4736   -2.9120   16.1773 C   0  0  0  0  0  0  0  0  0  0  0  0
   18.6555   -0.4371   16.5678 C   0  0  0  0  0  0  0  0  0  0  0  0
   18.5324   -1.8094   17.1009 C   0  0  0  0  0  0  0  0  0  0  0  0
  2  1  1  6
  2  3  1  0
  3  4  1  0
  2  5  1  0
  3  6  1  6
  1  7  1  0
  6  8  1  0
  7  8  1  0
  5  9  1  0
  9 10  1  0
  4 11  1  0
  9 11  1  0
 10 12  1  0
 11 13  1  1
 13 14  1  0
 13 15  1  0
 14 16  2  0
 12 17  2  0
 14 18  1  0
 12 19  1  0
 19 20  1  0
 15 21  2  3
 21 22  1  0
 15 23  1  0
 23 18  1  6
 23 24  1  0
 23 25  1  0
 24 26  1  6
 24 27  1  0
 27 28  1  1
 27 29  1  0
 25 30  1  0
 29 30  1  6
 28 31  1  0
 29 32  1  0
 31 33  1  0
 32 33  1  0
M  END
$$$$
103
     RDKit          3D

 33 36  0  0  0  0  0  0  0  0999 V2000
   18.1202    1.3032   17.9985 C   0  0  0  0  0  0  0  0  0  0  0  0
   17.7689    1.7286   16.8392 C   0  0  1  0  0  0  0  0  0  0  0  0
   17.8955    3.0014   16.4397 C   0  0  1  0  0  0  0  0  0  0  0  0
   17.3656    0.6445   15.8433 C   0  0  1  0  0  0  0  0  0  0  0  0
   18.5016    3.8905   17.2407 O   0  0  0  0  0  0  0  0  0  0  0  0
   18.4862    3.1893   14.9705 C   0  0  1  0  0  0  0  0  0  0  0  0
   17.7397    2.3107   13.9523 C   0  0  1  0  0  0  0  0  0  0  0  0
   18.3204    4.6891   14.6779 C   0  0  0  0  0  0  0  0  0  0  0  0
   18.1211   -0.0771   18.3082 C   0  0  0  0  0  0  0  0  0  0  0  0
   18.0174    2.6579   12.6556 C   0  0  0  0  0  0  0  0  0  0  0  0
   17.7634    0.8679   14.3203 C   0  0  0  0  0  0  0  0  0  0  0  0
   18.4057    3.6803   12.0959 N   0  0  0  0  0  0  0  0  0  0  0  0
   17.8366   -1.0945   17.4011 C   0  0  0  0  0  0  0  0  0  0  0  0
   18.8472    4.8374   13.1147 C   0  0  0  0  0  0  0  0  0  0  0  0
   17.4717   -0.7175   16.0701 C   0  0  0  0  0  0  0  0  0  0  0  0
   17.8045    1.5244   11.6565 O   0  0  0  0  0  0  0  0  0  0  0  0
   18.9098    3.8182   10.8632 C   0  0  1  0  0  0  0  0  0  0  0  0
   18.9725    2.8518   10.1222 C   0  0  0  0  0  0  0  0  0  0  0  0
   17.9799    5.0337   10.3285 O   0  0  0  0  0  0  0  0  0  0  0  0
   16.8207    4.5477    9.7841 C   0  0  0  0  0  0  0  0  0  0  0  0
   18.5243    1.5737   10.6485 C   0  0  2  0  0  0  0  0  0  0  0  0
   18.6248    0.3301    9.8910 C   0  0  2  0  0  0  0  0  0  0  0  0
   19.8036   -0.4191   10.1069 C   0  0  0  0  0  0  0  0  0  0  0  0
   19.9027   -1.5189    9.4119 N   0  0  0  0  0  0  0  0  0  0  0  0
   18.3151    0.3913    8.4800 O   0  0  0  0  0  0  0  0  0  0  0  0
   17.0202    0.3603    8.1330 C   0  0  0  0  0  0  0  0  0  0  0  0
   20.6668   -0.0210   10.8985 O   0  0  0  0  0  0  0  0  0  0  0  0
   20.4556   -2.7483   10.1234 N   0  0  0  0  0  0  0  0  0  0  0  0
   17.1415   -0.0372    6.5934 C   0  0  0  0  0  0  0  0  0  0  0  0
   19.5316   -3.9226    9.8254 C   0  0  0  0  0  0  0  0  0  0  0  0
   18.3665   -0.7169    6.2614 O   0  0  0  0  0  0  0  0  0  0  0  0
   18.5565   -3.8315    9.1456 O   0  0  0  0  0  0  0  0  0  0  0  0
   19.6932   -4.9694   10.7813 C   0  0  0  0  0  0  0  0  0  0  0  0
  2  1  1  6
  2  3  1  0
  2  4  1  0
  3  5  1  1
  3  6  1  0
  6  7  1  0
  6  8  1  6
  1  9  1  0
  7 10  1  0
  4 11  1  6
  7 11  1  6
 10 12  1  0
  9 13  1  0
  8 14  1  0
 12 14  1  0
  4 15  1  0
 13 15  1  0
 10 16  1  0
 12 17  1  0
 17 18  1  0
 17 19  1  6
 19 20  1  0
 16 21  1  0
 21 18  1  6
 21 22  1  0
 22 23  1  0
 23 24  1  0
 22 25  1  6
 25 26  1  0
 23 27  2  0
 24 28  1  0
 26 29  1  0
 28 30  1  0
 29 31  1  0
 30 32  2  0
 30 33  1  0
M  END
$$$$
104
     RDKit          3D

 33 39  0  0  0  0  0  0  0  0999 V2000
   16.6028   -4.4775    9.3104 C   0  0  0  0  0  0  0  0  0  0  0  0
   17.2116   -3.3166    9.2817 C   0  0  0  0  0  0  0  0  0  0  0  0
   18.2502   -2.8801    9.8692 C   0  0  0  0  0  0  0  0  0  0  0  0
   18.7433   -1.4733    9.7300 N   0  0  0  0  0  0  0  0  0  0  0  0
   18.2767   -0.7141    8.8425 C   0  0  1  0  0  0  0  0  0  0  0  0
   18.9311    0.6234    8.9293 C   0  0  1  0  0  0  0  0  0  0  0  0
   17.2002   -5.5159    9.0496 C   0  0  0  0  0  0  0  0  0  0  0  0
   17.4366   -1.0211    7.8308 O   0  0  0  0  0  0  0  0  0  0  0  0
   19.7513   -1.0286   10.8319 C   0  0  1  0  0  0  0  0  0  0  0  0
   17.5621   -0.4559    6.6497 C   0  0  0  0  0  0  0  0  0  0  0  0
   18.3790    1.6268    8.2054 O   0  0  0  0  0  0  0  0  0  0  0  0
   19.6916    0.3723   10.3652 C   0  0  1  0  0  0  0  0  0  0  0  0
   18.7045   -5.5549    9.5260 C   0  0  0  0  0  0  0  0  0  0  0  0
   19.1946   -4.2429    9.6142 C   0  0  0  0  0  0  0  0  0  0  0  0
   20.5275    1.2453   11.0570 C   0  0  1  0  0  0  0  0  0  0  0  0
   20.3147    2.6034   11.0336 N   0  0  0  0  0  0  0  0  0  0  0  0
   20.6061    0.7355   12.3586 O   0  0  0  0  0  0  0  0  0  0  0  0
   18.2877    0.9651    6.7745 C   0  0  2  0  0  0  0  0  0  0  0  0
   18.2186    1.9438    5.7803 C   0  0  1  0  0  0  0  0  0  0  0  0
   19.3056    0.3592   12.6074 C   0  0  2  0  0  0  0  0  0  0  0  0
   19.0923   -0.9376   12.1261 C   0  0  0  0  0  0  0  0  0  0  0  0
   18.1703    1.2737   12.4551 C   0  0  1  0  0  0  0  0  0  0  0  0
   17.2459    1.3135   13.4883 O   0  0  0  0  0  0  0  0  0  0  0  0
   18.1489    2.6842   12.1260 C   0  0  2  0  0  0  0  0  0  0  0  0
   19.1392    3.2069   11.3465 C   0  0  0  0  0  0  0  0  0  0  0  0
   17.1827   -0.8555    5.5044 C   0  0  0  0  0  0  0  0  0  0  0  0
   19.0601    4.6102   11.0083 C   0  0  0  0  0  0  0  0  0  0  0  0
   18.9799    3.1056    5.8741 F   0  0  0  0  0  0  0  0  0  0  0  0
   17.9098    1.4833    4.4944 C   0  0  0  0  0  0  0  0  0  0  0  0
   17.5371    0.0767    4.3368 C   0  0  0  0  0  0  0  0  0  0  0  0
   17.7649    3.6281   12.9123 C   0  0  0  0  0  0  0  0  0  0  0  0
   17.1172    0.2237   14.4908 C   0  0  0  0  0  0  0  0  0  0  0  0
   18.1379    4.9885   12.2409 C   0  0  0  0  0  0  0  0  0  0  0  0
  1  2  1  0
  2  3  1  0
  3  4  1  0
  4  5  1  0
  5  6  1  0
  1  7  1  0
  5  8  1  6
  4  9  1  0
  8 10  1  0
  6 11  1  1
  6 12  1  0
  9 12  1  0
  7 13  1  0
  3 14  1  0
 13 14  1  0
 12 15  1  6
 15 16  1  1
 15 17  1  0
 10 18  1  0
 18 11  1  1
 18 19  1  0
 17 20  1  0
  9 21  1  1
 20 21  1  6
 20 22  1  0
 22 23  1  1
 22 24  1  0
 16 25  2  0
 24 25  1  0
 10 26  1  0
 25 27  1  0
 19 28  1  6
 19 29  1  0
 26 30  1  0
 29 30  1  0
 24 31  1  1
 23 32  1  0
 27 33  1  0
 31 33  1  0
M  END
$$$$
105
     RDKit          3D

 33 40  0  0  0  0  0  0  0  0999 V2000
   18.7669   -2.0629   15.8816 C   0  0  0  0  0  0  0  0  0  0  0  0
   18.2939   -1.4542   16.9168 C   0  0  0  0  0  0  0  0  0  0  0  0
   18.5140   -1.4731   14.6004 C   0  0  2  0  0  0  0  0  0  0  0  0
   18.9159   -1.9595   13.4056 C   0  0  0  0  0  0  0  0  0  0  0  0
   18.0068   -0.1594   14.8235 C   0  0  0  0  0  0  0  0  0  0  0  0
   17.7593    0.6187   13.5942 C   0  0  2  0  0  0  0  0  0  0  0  0
   18.6507   -1.1781   12.2583 C   0  0  0  0  0  0  0  0  0  0  0  0
   17.6155    0.6310   15.9694 C   0  0  0  0  0  0  0  0  0  0  0  0
   17.9199   -0.1899   17.1646 C   0  0  0  0  0  0  0  0  0  0  0  0
   18.9853   -1.6649   10.9655 N   0  0  0  0  0  0  0  0  0  0  0  0
   17.0984    1.8218   13.6510 O   0  0  0  0  0  0  0  0  0  0  0  0
   19.4803   -2.8034   10.7367 C   0  0  0  0  0  0  0  0  0  0  0  0
   17.8788    2.8401   13.1992 C   0  0  0  0  0  0  0  0  0  0  0  0
   18.8695   -3.8643   10.9311 O   0  0  0  0  0  0  0  0  0  0  0  0
   18.4957   -0.7002    9.8775 C   0  0  1  0  0  0  0  0  0  0  0  0
   20.3728   -2.8347    9.5632 N   0  0  0  0  0  0  0  0  0  0  0  0
   18.0623    0.1224   12.3678 C   0  0  0  0  0  0  0  0  0  0  0  0
   17.4335    3.4196   11.9083 C   0  0  0  0  0  0  0  0  0  0  0  0
   17.9233    0.5316   10.8608 C   0  0  1  0  0  0  0  0  0  0  0  0
   19.3837   -0.1042    8.9393 C   0  0  0  0  0  0  0  0  0  0  0  0
   16.5867    4.4073   11.8301 O   0  0  0  0  0  0  0  0  0  0  0  0
   18.8526    0.9936    8.3122 C   0  0  2  0  0  0  0  0  0  0  0  0
   20.5843   -0.7520    8.7911 N   0  0  0  0  0  0  0  0  0  0  0  0
   20.9578   -1.7153    9.4123 C   0  0  0  0  0  0  0  0  0  0  0  0
   19.4472    1.3442    6.9966 C   0  0  0  0  0  0  0  0  0  0  0  0
   17.6606    2.8936   10.6549 N   0  0  0  0  0  0  0  0  0  0  0  0
   18.0074    1.8854    8.7398 N   0  0  0  0  0  0  0  0  0  0  0  0
   17.5641    3.7844    9.6344 C   0  0  1  0  0  0  0  0  0  0  0  0
   18.6998    2.2537    6.2489 C   0  0  0  0  0  0  0  0  0  0  0  0
   17.7755    1.7197   10.1524 C   0  0  1  0  0  0  0  0  0  0  0  0
   17.5071    5.3279    9.8113 C   0  0  0  0  0  0  0  0  0  0  0  0
   17.8308    3.1931    8.3992 C   0  0  0  0  0  0  0  0  0  0  0  0
   17.9343    3.5114    6.9958 C   0  0  0  0  0  0  0  0  0  0  0  0
  1  2  1  0
  3  1  1  1
  3  4  1  0
  3  5  1  0
  5  6  1  0
  4  7  1  0
  5  8  1  0
  2  9  1  0
  8  9  1  0
  7 10  1  0
  6 11  1  6
 10 12  1  0
 11 13  1  0
 12 14  2  0
 10 15  1  0
 12 16  1  0
  6 17  1  0
  7 17  1  0
 13 18  1  0
 15 19  1  0
 19 17  1  1
 15 20  1  6
 18 21  2  0
 20 22  1  0
 20 23  1  0
 16 24  1  0
 23 24  1  0
 22 25  1  1
 18 26  1  0
 22 27  1  0
 26 28  1  0
 25 29  1  0
 19 30  1  0
 30 26  1  1
 27 30  1  0
 28 31  1  1
 27 32  1  0
 28 32  1  0
 29 33  1  0
 32 33  1  0
M  END
$$$$
106
     RDKit          3D

 33 36  0  0  0  0  0  0  0  0999 V2000
   21.0172    0.6204   11.3140 O   0  0  0  0  0  0  0  0  0  0  0  0
   19.8020    0.5228   11.0127 C   0  0  0  0  0  0  0  0  0  0  0  0
   19.1865   -0.6465   11.2049 C   0  0  2  0  0  0  0  0  0  0  0  0
   19.1955    1.7000   10.5110 C   0  0  2  0  0  0  0  0  0  0  0  0
   19.8579    3.0060   10.3749 N   0  0  0  0  0  0  0  0  0  0  0  0
   19.9657   -1.7493   11.6012 O   0  0  0  0  0  0  0  0  0  0  0  0
   19.5543   -2.8660   11.0260 C   0  0  1  0  0  0  0  0  0  0  0  0
   17.9351    1.7509   11.3063 O   0  0  0  0  0  0  0  0  0  0  0  0
   19.3477    4.1632   11.0201 C   0  0  1  0  0  0  0  0  0  0  0  0
   18.5959   -0.8864    9.8975 O   0  0  0  0  0  0  0  0  0  0  0  0
   18.6446   -2.3156    9.6159 C   0  0  1  0  0  0  0  0  0  0  0  0
   19.0934   -2.4091    8.3933 C   0  0  0  0  0  0  0  0  0  0  0  0
   18.7749   -1.3738    7.5970 O   0  0  0  0  0  0  0  0  0  0  0  0
   17.5360   -1.1429    6.8393 C   0  0  0  0  0  0  0  0  0  0  0  0
   17.7489   -0.6418    5.5971 C   0  0  2  0  0  0  0  0  0  0  0  0
   18.0335    0.7446    5.4818 C   0  0  0  0  0  0  0  0  0  0  0  0
   17.9786    2.6366   12.3472 C   0  0  2  0  0  0  0  0  0  0  0  0
   16.7703   -1.0649    4.5691 O   0  0  0  0  0  0  0  0  0  0  0  0
   19.2400    1.2652    5.1509 O   0  0  0  0  0  0  0  0  0  0  0  0
   18.4762    3.9274   12.1454 C   0  0  0  0  0  0  0  0  0  0  0  0
   18.5665    1.8040   13.5016 C   0  0  0  0  0  0  0  0  0  0  0  0
   18.1457    4.9959   12.9807 C   0  0  0  0  0  0  0  0  0  0  0  0
   17.8320    0.8960   14.2402 N   0  0  0  0  0  0  0  0  0  0  0  0
   16.6090    0.6798   14.0582 C   0  0  0  0  0  0  0  0  0  0  0  0
   18.4648    6.3170   12.6567 C   0  0  0  0  0  0  0  0  0  0  0  0
   18.5304    0.0937   15.2295 C   0  0  0  0  0  0  0  0  0  0  0  0
   18.0438   -1.1652   15.2750 C   0  0  0  0  0  0  0  0  0  0  0  0
   20.0823   -3.8569   10.0137 C   0  0  0  0  0  0  0  0  0  0  0  0
   19.7481   -3.7019    8.6429 C   0  0  0  0  0  0  0  0  0  0  0  0
   18.7961   -2.1918   16.2305 C   0  0  0  0  0  0  0  0  0  0  0  0
   18.6652   -1.7842   17.5745 C   0  0  0  0  0  0  0  0  0  0  0  0
   19.4536    6.4678   11.6012 C   0  0  0  0  0  0  0  0  0  0  0  0
   19.7662    5.4002   10.7324 C   0  0  0  0  0  0  0  0  0  0  0  0
  1  2  1  0
  3  2  1  6
  4  2  1  1
  4  5  1  0
  3  6  1  0
  6  7  1  0
  4  8  1  0
  5  9  1  0
  3 10  1  0
  7 11  1  0
 11 10  1  1
 11 12  1  0
 12 13  1  0
 13 14  1  0
 14 15  1  0
 15 16  1  0
  8 17  1  0
 15 18  1  6
 16 19  1  0
  9 20  1  0
 17 20  1  0
 17 21  1  1
 20 22  1  0
 21 23  1  0
 23 24  1  0
 22 25  1  0
 23 26  1  0
 26 27  1  0
  7 28  1  6
 12 29  1  0
 28 29  1  0
 27 30  1  0
 30 31  1  0
 25 32  1  0
  9 33  1  1
 32 33  1  0
M  END
$$$$
107
     RDKit          3D

 33 37  0  0  0  0  0  0  0  0999 V2000
   19.0881   -2.2270   16.7779 C   0  0  0  0  0  0  0  0  0  0  0  0
   18.6073   -1.2451   17.5844 C   0  0  0  0  0  0  0  0  0  0  0  0
   18.7304   -2.1944   15.4059 C   0  0  0  0  0  0  0  0  0  0  0  0
   18.2671   -0.8589   14.9691 C   0  0  0  0  0  0  0  0  0  0  0  0
   17.9523   -0.6560   13.5714 C   0  0  2  0  0  0  0  0  0  0  0  0
   17.3600    0.7213   13.2334 C   0  0  0  0  0  0  0  0  0  0  0  0
   17.8466   -1.3151   12.5949 N   0  0  0  0  0  0  0  0  0  0  0  0
   17.6893   -0.0562   16.0113 C   0  0  0  0  0  0  0  0  0  0  0  0
   17.1646    0.6800   11.8738 N   0  0  0  0  0  0  0  0  0  0  0  0
   17.6002   -0.5709   11.3996 C   0  0  2  0  0  0  0  0  0  0  0  0
   16.7433    1.8266   11.0388 C   0  0  0  0  0  0  0  0  0  0  0  0
   17.9412   -0.1237   17.1213 C   0  0  0  0  0  0  0  0  0  0  0  0
   17.3323    1.7602    9.7258 O   0  0  0  0  0  0  0  0  0  0  0  0
   18.4353    2.2520    9.5931 C   0  0  1  0  0  0  0  0  0  0  0  0
   19.2610    1.6377    8.5389 C   0  0  2  0  0  0  0  0  0  0  0  0
   17.3991   -1.0279   10.0870 C   0  0  0  0  0  0  0  0  0  0  0  0
   18.8072    3.5117   10.0503 C   0  0  0  0  0  0  0  0  0  0  0  0
   17.8935    4.5786    9.8463 C   0  0  0  0  0  0  0  0  0  0  0  0
   18.9313    1.7002    7.2223 C   0  0  0  0  0  0  0  0  0  0  0  0
   18.5588   -1.6034    9.5902 N   0  0  0  0  0  0  0  0  0  0  0  0
   17.2562    5.1625   10.7721 C   0  0  0  0  0  0  0  0  0  0  0  0
   19.0151   -2.6784   10.1375 C   0  0  0  0  0  0  0  0  0  0  0  0
   18.5953    0.4885    6.4921 C   0  0  0  0  0  0  0  0  0  0  0  0
   19.3712   -3.7766    9.2236 C   0  0  0  0  0  0  0  0  0  0  0  0
   18.8029   -0.6994    7.1594 C   0  0  0  0  0  0  0  0  0  0  0  0
   19.7805    0.3262    9.2071 C   0  0  0  0  0  0  0  0  0  0  0  0
   19.1193   -0.7296    8.6075 C   0  0  1  0  0  0  0  0  0  0  0  0
   18.4546   -4.8116    9.3658 C   0  0  0  0  0  0  0  0  0  0  0  0
   18.0370   -5.4728    8.1998 C   0  0  0  0  0  0  0  0  0  0  0  0
   17.8910    5.3717   12.0454 C   0  0  0  0  0  0  0  0  0  0  0  0
   19.2976    3.4958   11.4550 C   0  0  0  0  0  0  0  0  0  0  0  0
   18.9958    4.4691   12.3396 C   0  0  0  0  0  0  0  0  0  0  0  0
   17.1094   -4.3420    9.9887 C   0  0  0  0  0  0  0  0  0  0  0  0
  1  2  1  0
  1  3  1  0
  3  4  1  0
  5  4  1  1
  5  6  1  0
  5  7  1  0
  4  8  1  0
  6  9  1  0
  7 10  1  0
  9 10  1  0
  9 11  1  0
  2 12  1  0
  8 12  1  0
 11 13  1  0
 13 14  1  0
 14 15  1  0
 10 16  1  6
 14 17  1  6
 17 18  1  0
 15 19  1  6
 16 20  1  0
 18 21  1  0
 20 22  1  0
 19 23  1  0
 22 24  1  0
 23 25  1  0
 15 26  1  0
 20 27  1  0
 27 25  1  6
 26 27  1  0
 24 28  1  0
 28 29  1  0
 21 30  1  0
 17 31  1  0
 30 32  1  0
 31 32  1  0
 28 33  1  0
M  END
$$$$
108
     RDKit          3D

 33 37  0  0  0  0  0  0  0  0999 V2000
   18.8579    1.8829    4.7669 C   0  0  0  0  0  0  0  0  0  0  0  0
   18.6818    1.4842    5.9171 C   0  0  2  0  0  0  0  0  0  0  0  0
   18.1017    0.2248    6.2468 C   0  0  1  0  0  0  0  0  0  0  0  0
   17.8160   -0.2171    7.5817 N   0  0  0  0  0  0  0  0  0  0  0  0
   18.9980    2.3385    7.0711 C   0  0  0  0  0  0  0  0  0  0  0  0
   17.4684   -0.8466    5.3240 C   0  0  0  0  0  0  0  0  0  0  0  0
   18.7487    2.0416    8.3173 C   0  0  0  0  0  0  0  0  0  0  0  0
   18.1176    0.7577    8.6480 C   0  0  2  0  0  0  0  0  0  0  0  0
   17.1940   -2.0408    5.8199 N   0  0  0  0  0  0  0  0  0  0  0  0
   17.9868    0.3232    9.9857 N   0  0  0  0  0  0  0  0  0  0  0  0
   17.5221   -0.4806    4.0450 O   0  0  0  0  0  0  0  0  0  0  0  0
   17.9596   -3.1635    5.4390 C   0  0  0  0  0  0  0  0  0  0  0  0
   18.9488    0.2522   10.8584 C   0  0  0  0  0  0  0  0  0  0  0  0
   16.7067   -0.3549   10.3055 C   0  0  0  0  0  0  0  0  0  0  0  0
   19.1451   -3.3719    6.2344 C   0  0  0  0  0  0  0  0  0  0  0  0
   18.6886   -3.5290    7.5540 C   0  0  2  0  0  0  0  0  0  0  0  0
   18.5939    0.0812   12.0585 O   0  0  0  0  0  0  0  0  0  0  0  0
   19.5039    0.1572   13.1856 C   0  0  0  0  0  0  0  0  0  0  0  0
   19.0623   -4.6105    8.3033 C   0  0  0  0  0  0  0  0  0  0  0  0
   20.2853    0.3617   10.5048 C   0  0  0  0  0  0  0  0  0  0  0  0
   18.8204   -0.0904   14.4405 C   0  0  2  0  0  0  0  0  0  0  0  0
   18.6311   -1.3234   14.9671 C   0  0  0  0  0  0  0  0  0  0  0  0
   18.8010   -4.7141    9.7624 C   0  0  0  0  0  0  0  0  0  0  0  0
   19.2247   -2.4138   14.5097 O   0  0  0  0  0  0  0  0  0  0  0  0
   18.3332    1.1988   14.8770 C   0  0  0  0  0  0  0  0  0  0  0  0
   17.6921   -4.0468   10.1356 C   0  0  0  0  0  0  0  0  0  0  0  0
   17.4439   -3.0635    8.1992 C   0  0  2  0  0  0  0  0  0  0  0  0
   16.8780   -1.9665    7.3043 C   0  0  1  0  0  0  0  0  0  0  0  0
   17.0162   -3.1973    9.2699 C   0  0  0  0  0  0  0  0  0  0  0  0
   17.5639    1.1221   16.2137 C   0  0  0  0  0  0  0  0  0  0  0  0
   17.3759   -0.1397   16.8246 C   0  0  0  0  0  0  0  0  0  0  0  0
   21.2620    0.3263   11.5265 O   0  0  0  0  0  0  0  0  0  0  0  0
   17.9510   -1.3578   16.2384 N   0  0  0  0  0  0  0  0  0  0  0  0
  2  1  1  6
  2  3  1  0
  3  4  1  0
  2  5  1  0
  3  6  1  6
  5  7  1  0
  4  8  1  0
  7  8  1  0
  6  9  1  0
  8 10  1  1
  6 11  2  0
  9 12  1  0
 10 13  1  0
 10 14  1  0
 12 15  1  0
 16 15  1  6
 13 17  1  0
 17 18  1  0
 16 19  1  0
 13 20  2  3
 21 18  1  6
 21 22  1  0
 19 23  1  0
 22 24  2  0
 21 25  1  0
 23 26  1  0
 16 27  1  0
 28  4  1  1
  9 28  1  0
 27 28  1  0
 26 29  1  0
 27 29  1  1
 25 30  1  0
 30 31  1  0
 20 32  1  0
 22 33  1  0
 31 33  1  0
M  END
$$$$
11
     RDKit          3D

 16 17  0  0  0  0  0  0  0  0999 V2000
   16.6028   -4.4775    9.3104 C   0  0  0  0  0  0  0  0  0  0  0  0
   17.2116   -3.3166    9.2817 C   0  0  0  0  0  0  0  0  0  0  0  0
   18.2502   -2.8801    9.8692 C   0  0  0  0  0  0  0  0  0  0  0  0
   18.7433   -1.4733    9.7300 C   0  0  1  0  0  0  0  0  0  0  0  0
   17.2652   -5.4747   10.0599 C   0  0  0  0  0  0  0  0  0  0  0  0
   19.0541   -3.9184   10.4314 C   0  0  0  0  0  0  0  0  0  0  0  0
   18.6065   -5.1937   10.5755 C   0  0  0  0  0  0  0  0  0  0  0  0
   17.8455   -0.5237   10.1611 O   0  0  0  0  0  0  0  0  0  0  0  0
   19.9910   -1.1213   10.6180 C   0  0  2  0  0  0  0  0  0  0  0  0
   18.1822    0.4712   10.8467 C   0  0  2  0  0  0  0  0  0  0  0  0
   19.6503    0.1807   11.2162 C   0  0  2  0  0  0  0  0  0  0  0  0
   20.8076    0.9111   10.9407 O   0  0  0  0  0  0  0  0  0  0  0  0
   21.1282   -1.0735    9.7729 O   0  0  0  0  0  0  0  0  0  0  0  0
   17.5294    0.8153   12.0370 C   0  0  0  0  0  0  0  0  0  0  0  0
   16.6673   -0.0456   12.3743 O   0  0  0  0  0  0  0  0  0  0  0  0
   17.6217    1.9097   12.5529 O   0  0  0  0  0  0  0  0  0  0  0  0
  1  2  1  0
  2  3  1  0
  4  3  1  1
  1  5  1  0
  3  6  1  0
  5  7  1  0
  6  7  1  0
  4  8  1  0
  4  9  1  0
  8 10  1  0
  9 11  1  0
 10 11  1  0
 11 12  1  6
  9 13  1  6
 10 14  1  1
 14 15  2  0
 14 16  1  0
M  END
$$$$
12
     RDKit          3D

 17 17  0  0  0  0  0  0  0  0999 V2000
   16.1669   -0.5037    5.9615 C   0  0  0  0  0  0  0  0  0  0  0  0
   16.8280   -0.8249    7.0560 O   0  0  0  0  0  0  0  0  0  0  0  0
   16.8711   -0.9390    4.8418 C   0  0  0  0  0  0  0  0  0  0  0  0
   18.0145   -0.0593    4.5308 C   0  0  0  0  0  0  0  0  0  0  0  0
   16.8018   -0.2552    8.2317 C   0  0  0  0  0  0  0  0  0  0  0  0
   19.1713   -0.6772    3.9900 C   0  0  0  0  0  0  0  0  0  0  0  0
   18.1782    1.2866    5.0028 C   0  0  0  0  0  0  0  0  0  0  0  0
   19.4889    1.8039    4.7684 O   0  0  0  0  0  0  0  0  0  0  0  0
   17.2934   -0.8299    9.2564 C   0  0  2  0  0  0  0  0  0  0  0  0
   18.7676   -1.0232    9.2607 C   0  0  1  0  0  0  0  0  0  0  0  0
   19.5521   -2.1995    9.7427 C   0  0  2  0  0  0  0  0  0  0  0  0
   16.9967   -2.2222    9.7691 O   0  0  0  0  0  0  0  0  0  0  0  0
   18.2792   -3.0213   10.0354 C   0  0  1  0  0  0  0  0  0  0  0  0
   19.5304   -0.9431    7.7574 O   0  0  0  0  0  0  0  0  0  0  0  0
   18.4439   -4.3015    9.2642 C   0  0  0  0  0  0  0  0  0  0  0  0
   20.6009   -2.0316   10.6715 O   0  0  0  0  0  0  0  0  0  0  0  0
   17.4247   -5.2568    9.5953 O   0  0  0  0  0  0  0  0  0  0  0  0
  1  2  1  0
  1  3  1  0
  3  4  1  0
  2  5  1  0
  4  6  2  0
  4  7  1  0
  7  8  1  0
  9  5  1  6
  9 10  1  0
 10 11  1  0
  9 12  1  0
 11 13  1  0
 12 13  1  0
 10 14  1  6
 13 15  1  6
 11 16  1  1
 15 17  1  0
M  END
$$$$
13
     RDKit          3D

 19 21  0  0  0  0  0  0  0  0999 V2000
   18.4492    0.6246   17.9047 C   0  0  0  0  0  0  0  0  0  0  0  0
   18.3842   -0.6629   17.6429 C   0  0  0  0  0  0  0  0  0  0  0  0
   17.8477   -1.1514   16.4121 C   0  0  0  0  0  0  0  0  0  0  0  0
   17.6078   -0.2751   15.5845 C   0  0  0  0  0  0  0  0  0  0  0  0
   17.6308    1.2068   15.7558 C   0  0  0  0  0  0  0  0  0  0  0  0
   18.1612    1.5958   16.9853 C   0  0  0  0  0  0  0  0  0  0  0  0
   17.2448    2.1614   14.6085 C   0  0  0  0  0  0  0  0  0  0  0  0
   18.4267    2.4352   13.7639 N   0  0  0  0  0  0  0  0  0  0  0  0
   18.3643    3.5102   13.0071 C   0  0  1  0  0  0  0  0  0  0  0  0
   18.3880    1.2689   12.7146 C   0  0  2  0  0  0  0  0  0  0  0  0
   19.0184    3.5277   11.7414 C   0  0  2  0  0  0  0  0  0  0  0  0
   16.9963    4.0322   12.7730 O   0  0  0  0  0  0  0  0  0  0  0  0
   18.9018    2.0266   11.4158 C   0  0  2  0  0  0  0  0  0  0  0  0
   18.1168    1.7100   10.2635 C   0  0  1  0  0  0  0  0  0  0  0  0
   17.1947    0.7359   12.4797 O   0  0  0  0  0  0  0  0  0  0  0  0
   17.1708    0.7581   10.8753 C   0  0  0  0  0  0  0  0  0  0  0  0
   17.4297    2.8686    9.7707 O   0  0  0  0  0  0  0  0  0  0  0  0
   16.3862   -0.1802   10.3475 C   0  0  0  0  0  0  0  0  0  0  0  0
   20.0609    4.4772   11.8629 O   0  0  0  0  0  0  0  0  0  0  0  0
  1  2  1  0
  2  3  1  0
  3  4  1  0
  4  5  1  0
  1  6  1  0
  5  6  1  0
  5  7  1  0
  7  8  1  0
  8  9  1  0
  8 10  1  0
  9 11  1  0
  9 12  1  6
 10 13  1  0
 11 13  1  0
 13 14  1  6
 10 15  1  6
 14 16  1  0
 15 16  1  0
 14 17  1  1
 16 18  2  0
 11 19  1  1
M  END
$$$$
14
     RDKit          3D

 19 21  0  0  0  0  0  0  0  0999 V2000
   17.9618    0.0112   18.4162 C   0  0  0  0  0  0  0  0  0  0  0  0
   18.2732   -1.1470   17.8771 C   0  0  0  0  0  0  0  0  0  0  0  0
   18.2797   -1.3511   16.5804 C   0  0  0  0  0  0  0  0  0  0  0  0
   17.8601   -0.4989   15.5950 C   0  0  0  0  0  0  0  0  0  0  0  0
   17.4086    1.0122   17.4898 C   0  0  0  0  0  0  0  0  0  0  0  0
   17.5424    0.6611   16.0378 C   0  0  0  0  0  0  0  0  0  0  0  0
   17.9871   -0.8280   14.0818 C   0  0  0  0  0  0  0  0  0  0  0  0
   17.5003    0.1485   13.3087 C   0  0  0  0  0  0  0  0  0  0  0  0
   18.4031    0.5954   12.2932 N   0  0  0  0  0  0  0  0  0  0  0  0
   17.9216    0.9575   10.9910 C   0  0  0  0  0  0  0  0  0  0  0  0
   19.7601    0.6355   12.4295 C   0  0  0  0  0  0  0  0  0  0  0  0
   20.5149    1.0879   11.2921 C   0  0  0  0  0  0  0  0  0  0  0  0
   16.7165    0.4608   10.7294 O   0  0  0  0  0  0  0  0  0  0  0  0
   19.9318    0.8530    9.9917 N   0  0  0  0  0  0  0  0  0  0  0  0
   18.6726    0.8419    9.8420 C   0  0  0  0  0  0  0  0  0  0  0  0
   20.6793    0.5205    8.9072 C   0  0  0  0  0  0  0  0  0  0  0  0
   19.6992    0.4266    7.9235 N   0  0  0  0  0  0  0  0  0  0  0  0
   18.4421    0.6802    8.5634 C   0  0  0  0  0  0  0  0  0  0  0  0
   17.1937    0.6732    7.8563 O   0  0  0  0  0  0  0  0  0  0  0  0
  1  2  1  0
  2  3  1  0
  3  4  1  0
  1  5  1  0
  4  6  1  0
  5  6  1  0
  4  7  1  0
  7  8  1  0
  8  9  1  0
  9 10  1  0
  9 11  1  0
 11 12  1  0
 10 13  2  0
 12 14  1  0
 10 15  1  0
 14 15  1  0
 14 16  1  0
 16 17  1  0
 15 18  1  0
 17 18  1  0
 18 19  2  0
M  END
$$$$
15
     RDKit          3D

 19 21  0  0  0  0  0  0  0  0999 V2000
   18.4492    0.6246   17.9047 C   0  0  0  0  0  0  0  0  0  0  0  0
   18.3842   -0.6629   17.6429 C   0  0  0  0  0  0  0  0  0  0  0  0
   17.8477   -1.1514   16.4121 C   0  0  0  0  0  0  0  0  0  0  0  0
   17.6078   -0.2751   15.5845 C   0  0  0  0  0  0  0  0  0  0  0  0
   17.6308    1.2068   15.7558 C   0  0  0  0  0  0  0  0  0  0  0  0
   18.1612    1.5958   16.9853 C   0  0  0  0  0  0  0  0  0  0  0  0
   17.2448    2.1614   14.6085 C   0  0  0  0  0  0  0  0  0  0  0  0
   18.4267    2.4352   13.7639 N   0  0  0  0  0  0  0  0  0  0  0  0
   18.3643    3.5102   13.0071 C   0  0  1  0  0  0  0  0  0  0  0  0
   18.3880    1.2689   12.7146 C   0  0  2  0  0  0  0  0  0  0  0  0
   19.0184    3.5277   11.7414 C   0  0  2  0  0  0  0  0  0  0  0  0
   16.9963    4.0322   12.7730 O   0  0  0  0  0  0  0  0  0  0  0  0
   18.9018    2.0266   11.4158 C   0  0  2  0  0  0  0  0  0  0  0  0
   18.1168    1.7100   10.2635 C   0  0  1  0  0  0  0  0  0  0  0  0
   17.1947    0.7359   12.4797 O   0  0  0  0  0  0  0  0  0  0  0  0
   17.1708    0.7581   10.8753 C   0  0  0  0  0  0  0  0  0  0  0  0
   17.4297    2.8686    9.7707 O   0  0  0  0  0  0  0  0  0  0  0  0
   16.3862   -0.1802   10.3475 O   0  0  0  0  0  0  0  0  0  0  0  0
   19.9368    4.5466   11.8655 O   0  0  0  0  0  0  0  0  0  0  0  0
  1  2  1  0
  2  3  1  0
  3  4  1  0
  4  5  1  0
  1  6  1  0
  5  6  1  0
  5  7  1  0
  7  8  1  0
  8  9  1  0
  8 10  1  0
  9 11  1  0
  9 12  1  6
 10 13  1  0
 11 13  1  0
 13 14  1  6
 10 15  1  6
 14 16  1  0
 15 16  1  0
 14 17  1  1
 16 18  2  0
 11 19  1  1
M  END
$$$$
16
     RDKit          3D

 21 23  0  0  0  0  0  0  0  0999 V2000
   17.9618    0.0112   18.4162 C   0  0  0  0  0  0  0  0  0  0  0  0
   18.2732   -1.1470   17.8771 C   0  0  0  0  0  0  0  0  0  0  0  0
   18.2797   -1.3511   16.5804 C   0  0  0  0  0  0  0  0  0  0  0  0
   17.8601   -0.4989   15.5950 C   0  0  0  0  0  0  0  0  0  0  0  0
   17.4086    1.0122   17.4898 C   0  0  0  0  0  0  0  0  0  0  0  0
   17.5424    0.6611   16.0378 C   0  0  0  0  0  0  0  0  0  0  0  0
   17.9871   -0.8280   14.0818 C   0  0  0  0  0  0  0  0  0  0  0  0
   17.5003    0.1485   13.3087 C   0  0  0  0  0  0  0  0  0  0  0  0
   18.4031    0.5954   12.2932 N   0  0  0  0  0  0  0  0  0  0  0  0
   17.9216    0.9575   10.9910 C   0  0  0  0  0  0  0  0  0  0  0  0
   19.7601    0.6355   12.4295 C   0  0  0  0  0  0  0  0  0  0  0  0
   20.5149    1.0879   11.2921 C   0  0  0  0  0  0  0  0  0  0  0  0
   16.7165    0.4608   10.7294 O   0  0  0  0  0  0  0  0  0  0  0  0
   19.9318    0.8530    9.9917 N   0  0  0  0  0  0  0  0  0  0  0  0
   18.6726    0.8419    9.8420 C   0  0  2  0  0  0  0  0  0  0  0  0
   18.0938    0.9571    8.5529 C   0  0  0  0  0  0  0  0  0  0  0  0
   18.7347    1.6469    7.5701 C   0  0  0  0  0  0  0  0  0  0  0  0
   18.6457    1.3259    6.3602 C   0  0  0  0  0  0  0  0  0  0  0  0
   18.0043    0.4164    5.8895 C   0  0  0  0  0  0  0  0  0  0  0  0
   17.7503   -0.3942    8.0506 C   0  0  0  0  0  0  0  0  0  0  0  0
   17.4775   -0.5940    6.7231 C   0  0  0  0  0  0  0  0  0  0  0  0
  1  2  1  0
  2  3  1  0
  3  4  1  0
  1  5  1  0
  4  6  1  0
  5  6  1  0
  4  7  1  0
  7  8  1  0
  8  9  1  0
  9 10  1  0
  9 11  1  0
 11 12  1  0
 10 13  2  0
 12 14  1  0
 10 15  1  0
 14 15  1  0
 15 16  1  6
 16 17  1  0
 17 18  1  0
 18 19  1  0
 16 20  1  0
 19 21  1  0
 20 21  1  0
M  END
$$$$
17
     RDKit          3D

 22 23  0  0  0  0  0  0  0  0999 V2000
   18.7669   -2.0629   15.8816 C   0  0  0  0  0  0  0  0  0  0  0  0
   18.4397   -1.5121   14.7338 C   0  0  0  0  0  0  0  0  0  0  0  0
   18.4099   -1.4782   17.1339 C   0  0  0  0  0  0  0  0  0  0  0  0
   17.9058   -0.1386   14.9768 C   0  0  0  0  0  0  0  0  0  0  0  0
   17.7233    0.4532   16.2158 C   0  0  0  0  0  0  0  0  0  0  0  0
   18.0273   -0.3038   17.3403 C   0  0  0  0  0  0  0  0  0  0  0  0
   17.5121    0.6994   13.8810 C   0  0  0  0  0  0  0  0  0  0  0  0
   17.2835    0.0617   12.6339 O   0  0  0  0  0  0  0  0  0  0  0  0
   17.6870    0.4269   11.4539 C   0  0  1  0  0  0  0  0  0  0  0  0
   18.8311   -0.2857   10.9320 C   0  0  0  0  0  0  0  0  0  0  0  0
   17.0283    1.1808   10.6642 C   0  0  0  0  0  0  0  0  0  0  0  0
   19.5997   -1.1352   11.9482 O   0  0  0  0  0  0  0  0  0  0  0  0
   17.5462    1.5454    9.3658 C   0  0  0  0  0  0  0  0  0  0  0  0
   18.6855    0.8360    8.8865 C   0  0  2  0  0  0  0  0  0  0  0  0
   19.1056    1.1707    7.5605 C   0  0  0  0  0  0  0  0  0  0  0  0
   19.2168   -0.2023    9.5788 C   0  0  1  0  0  0  0  0  0  0  0  0
   18.1658    1.4529    6.4986 C   0  0  0  0  0  0  0  0  0  0  0  0
   18.0652    0.3061    5.5284 C   0  0  0  0  0  0  0  0  0  0  0  0
   20.6612   -0.5084    9.2904 O   0  0  0  0  0  0  0  0  0  0  0  0
   18.3717    0.3696    4.3598 O   0  0  0  0  0  0  0  0  0  0  0  0
   17.2896   -0.7466    5.7901 N   0  0  0  0  0  0  0  0  0  0  0  0
   16.8914   -1.6920    4.8879 C   0  0  0  0  0  0  0  0  0  0  0  0
  1  2  1  0
  1  3  1  0
  2  4  1  0
  4  5  1  0
  3  6  1  0
  5  6  1  0
  4  7  1  0
  7  8  1  0
  9  8  1  6
  9 10  1  0
  9 11  1  0
 10 12  1  0
 11 13  1  0
 13 14  1  0
 14 15  1  6
 10 16  1  0
 14 16  1  0
 15 17  1  0
 17 18  1  0
 16 19  1  1
 18 20  2  0
 18 21  1  0
 21 22  1  0
M  END
$$$$
18
     RDKit          3D

 22 24  0  0  0  0  0  0  0  0999 V2000
   17.9618    0.0112   18.4162 C   0  0  0  0  0  0  0  0  0  0  0  0
   18.2732   -1.1470   17.8771 C   0  0  0  0  0  0  0  0  0  0  0  0
   18.2797   -1.3511   16.5804 C   0  0  0  0  0  0  0  0  0  0  0  0
   17.8601   -0.4989   15.5950 C   0  0  0  0  0  0  0  0  0  0  0  0
   17.4086    1.0122   17.4898 C   0  0  0  0  0  0  0  0  0  0  0  0
   17.5424    0.6611   16.0378 C   0  0  0  0  0  0  0  0  0  0  0  0
   17.9871   -0.8280   14.0818 C   0  0  0  0  0  0  0  0  0  0  0  0
   17.5003    0.1485   13.3087 C   0  0  0  0  0  0  0  0  0  0  0  0
   18.4031    0.5954   12.2932 N   0  0  0  0  0  0  0  0  0  0  0  0
   17.9216    0.9575   10.9910 C   0  0  0  0  0  0  0  0  0  0  0  0
   19.7601    0.6355   12.4295 C   0  0  0  0  0  0  0  0  0  0  0  0
   20.5149    1.0879   11.2921 C   0  0  0  0  0  0  0  0  0  0  0  0
   16.7165    0.4608   10.7294 O   0  0  0  0  0  0  0  0  0  0  0  0
   19.9318    0.8530    9.9917 N   0  0  0  0  0  0  0  0  0  0  0  0
   18.6726    0.8419    9.8420 C   0  0  2  0  0  0  0  0  0  0  0  0
   18.0938    0.9571    8.5529 C   0  0  1  0  0  0  0  0  0  0  0  0
   18.7347    1.6469    7.5701 C   0  0  2  0  0  0  0  0  0  0  0  0
   17.1799   -0.0897    8.0171 C   0  0  0  0  0  0  0  0  0  0  0  0
   16.9006   -0.1295    6.6827 C   0  0  0  0  0  0  0  0  0  0  0  0
   19.7655    2.6132    7.8821 O   0  0  0  0  0  0  0  0  0  0  0  0
   18.4404    1.5856    6.1867 C   0  0  0  0  0  0  0  0  0  0  0  0
   17.5712    0.6539    5.7475 C   0  0  0  0  0  0  0  0  0  0  0  0
  1  2  1  0
  2  3  1  0
  3  4  1  0
  1  5  1  0
  4  6  1  0
  5  6  1  0
  4  7  1  0
  7  8  1  0
  8  9  1  0
  9 10  1  0
  9 11  1  0
 11 12  1  0
 10 13  2  0
 12 14  1  0
 10 15  1  0
 15 14  1  1
 15 16  1  0
 16 17  1  0
 16 18  1  6
 18 19  1  0
 17 20  1  1
 17 21  1  0
 19 22  1  0
 21 22  1  0
M  END
$$$$
19
     RDKit          3D

 23 25  0  0  0  0  0  0  0  0999 V2000
   17.9618    0.0112   18.4162 C   0  0  0  0  0  0  0  0  0  0  0  0
   18.2732   -1.1470   17.8771 C   0  0  0  0  0  0  0  0  0  0  0  0
   18.2797   -1.3511   16.5804 C   0  0  0  0  0  0  0  0  0  0  0  0
   17.8601   -0.4989   15.5950 C   0  0  0  0  0  0  0  0  0  0  0  0
   17.4086    1.0122   17.4898 C   0  0  0  0  0  0  0  0  0  0  0  0
   17.5424    0.6611   16.0378 C   0  0  0  0  0  0  0  0  0  0  0  0
   17.9871   -0.8280   14.0818 C   0  0  0  0  0  0  0  0  0  0  0  0
   17.5003    0.1485   13.3087 C   0  0  0  0  0  0  0  0  0  0  0  0
   18.4031    0.5954   12.2932 N   0  0  0  0  0  0  0  0  0  0  0  0
   17.9216    0.9575   10.9910 C   0  0  0  0  0  0  0  0  0  0  0  0
   19.7601    0.6355   12.4295 C   0  0  0  0  0  0  0  0  0  0  0  0
   20.5149    1.0879   11.2921 C   0  0  0  0  0  0  0  0  0  0  0  0
   16.7165    0.4608   10.7294 O   0  0  0  0  0  0  0  0  0  0  0  0
   19.9318    0.8530    9.9917 N   0  0  0  0  0  0  0  0  0  0  0  0
   18.6726    0.8419    9.8420 C   0  0  2  0  0  0  0  0  0  0  0  0
   18.0938    0.9571    8.5529 C   0  0  1  0  0  0  0  0  0  0  0  0
   18.7347    1.6469    7.5701 C   0  0  2  0  0  0  0  0  0  0  0  0
   17.1799   -0.0897    8.0171 C   0  0  0  0  0  0  0  0  0  0  0  0
   16.9006   -0.1295    6.6827 C   0  0  0  0  0  0  0  0  0  0  0  0
   19.7655    2.6132    7.8821 O   0  0  0  0  0  0  0  0  0  0  0  0
   18.4404    1.5856    6.1867 C   0  0  1  0  0  0  0  0  0  0  0  0
   19.1529    2.4598    5.2619 F   0  0  0  0  0  0  0  0  0  0  0  0
   17.6111    0.6436    5.7355 C   0  0  0  0  0  0  0  0  0  0  0  0
  1  2  1  0
  2  3  1  0
  3  4  1  0
  1  5  1  0
  4  6  1  0
  5  6  1  0
  4  7  1  0
  7  8  1  0
  8  9  1  0
  9 10  1  0
  9 11  1  0
 11 12  1  0
 10 13  2  0
 12 14  1  0
 10 15  1  0
 15 14  1  1
 15 16  1  0
 16 17  1  0
 16 18  1  6
 18 19  1  0
 17 20  1  1
 17 21  1  0
 21 22  1  6
 19 23  1  0
 21 23  1  0
M  END
$$$$
2
     RDKit          3D

  7  7  0  0  0  0  0  0  0  0999 V2000
   18.4492    0.6246   17.9047 C   0  0  0  0  0  0  0  0  0  0  0  0
   18.3842   -0.6629   17.6429 C   0  0  0  0  0  0  0  0  0  0  0  0
   18.8978   -1.5882   18.3961 F   0  0  0  0  0  0  0  0  0  0  0  0
   17.7787    1.4399   16.8787 C   0  0  0  0  0  0  0  0  0  0  0  0
   17.2468    0.9751   15.7371 C   0  0  0  0  0  0  0  0  0  0  0  0
   17.9884   -1.2470   16.3378 C   0  0  0  0  0  0  0  0  0  0  0  0
   17.5535   -0.4559   15.4085 C   0  0  0  0  0  0  0  0  0  0  0  0
  1  2  1  0
  2  3  1  0
  1  4  1  0
  4  5  1  0
  2  6  1  0
  5  7  1  0
  6  7  1  0
M  END
$$$$
20
     RDKit          3D

 23 26  0  0  0  0  0  0  0  0999 V2000
   18.9584    1.9326    5.2255 C   0  0  0  0  0  0  0  0  0  0  0  0
   18.3617    1.0045    4.5806 C   0  0  0  0  0  0  0  0  0  0  0  0
   18.0870    0.0008    5.4624 C   0  0  0  0  0  0  0  0  0  0  0  0
   19.1712    2.0681    6.6078 C   0  0  0  0  0  0  0  0  0  0  0  0
   18.0946   -0.0585    6.7987 C   0  0  0  0  0  0  0  0  0  0  0  0
   18.7023    1.0425    7.3315 C   0  0  0  0  0  0  0  0  0  0  0  0
   18.6764    0.8725    8.7836 C   0  0  1  0  0  0  0  0  0  0  0  0
   19.2191    1.6474    9.7250 N   0  0  0  0  0  0  0  0  0  0  0  0
   18.9557    2.9012    9.8552 C   0  0  0  0  0  0  0  0  0  0  0  0
   18.0117    3.3720   10.7489 C   0  0  2  0  0  0  0  0  0  0  0  0
   17.9111   -0.1957    9.4464 C   0  0  1  0  0  0  0  0  0  0  0  0
   19.1512    1.1981   11.1042 C   0  0  2  0  0  0  0  0  0  0  0  0
   18.3714   -0.2214   10.8406 C   0  0  2  0  0  0  0  0  0  0  0  0
   18.1607    4.7277   11.2952 C   0  0  0  0  0  0  0  0  0  0  0  0
   16.5489   -0.0361    9.2904 O   0  0  0  0  0  0  0  0  0  0  0  0
   18.2661    2.0911   11.8263 C   0  0  1  0  0  0  0  0  0  0  0  0
   18.7636    2.4112   13.1219 C   0  0  0  0  0  0  0  0  0  0  0  0
   18.2993    3.7450   13.5226 C   0  0  0  0  0  0  0  0  0  0  0  0
   19.2133   -1.5211   10.9859 C   0  0  0  0  0  0  0  0  0  0  0  0
   20.5549   -1.4044   10.3887 C   0  0  0  0  0  0  0  0  0  0  0  0
   18.5217    4.9148   12.6928 C   0  0  0  0  0  0  0  0  0  0  0  0
   18.8860   -2.2040   11.8936 O   0  0  0  0  0  0  0  0  0  0  0  0
   21.5177   -0.4416   10.6895 O   0  0  0  0  0  0  0  0  0  0  0  0
  1  2  1  0
  2  3  1  0
  1  4  1  0
  3  5  1  0
  4  6  1  0
  5  6  1  0
  7  6  1  6
  7  8  1  0
  8  9  1  0
 10  9  1  6
  7 11  1  0
 12  8  1  6
 11 13  1  0
 12 13  1  0
 10 14  1  0
 11 15  1  1
 10 16  1  0
 12 16  1  0
 16 17  1  1
 17 18  1  0
 13 19  1  6
 19 20  1  0
 14 21  1  0
 18 21  1  0
 19 22  2  0
 20 23  1  0
M  END
$$$$
21
     RDKit          3D

 23 26  0  0  0  0  0  0  0  0999 V2000
   18.8315    2.1240    5.3008 C   0  0  0  0  0  0  0  0  0  0  0  0
   18.2779    1.1031    4.6629 C   0  0  0  0  0  0  0  0  0  0  0  0
   18.0804    0.0912    5.4678 C   0  0  1  0  0  0  0  0  0  0  0  0
   18.2893    0.1453    6.7162 C   0  0  0  0  0  0  0  0  0  0  0  0
   19.2196    3.3299    4.4944 F   0  0  0  0  0  0  0  0  0  0  0  0
   19.0918    2.2448    6.6731 C   0  0  0  0  0  0  0  0  0  0  0  0
   18.7079    1.1280    7.3584 C   0  0  2  0  0  0  0  0  0  0  0  0
   18.8741    1.0400    8.9098 C   0  0  2  0  0  0  0  0  0  0  0  0
   17.4471   -1.1435    4.7285 C   0  0  0  0  0  0  0  0  0  0  0  0
   19.2567   -0.1579    9.4349 C   0  0  1  0  0  0  0  0  0  0  0  0
   19.3520   -0.0913   10.8673 C   0  0  1  0  0  0  0  0  0  0  0  0
   17.9456   -2.3031    4.9669 N   0  0  0  0  0  0  0  0  0  0  0  0
   18.4191   -1.4390    9.1704 N   0  0  0  0  0  0  0  0  0  0  0  0
   18.9047   -1.1703   11.4946 C   0  0  1  0  0  0  0  0  0  0  0  0
   17.8331    1.3504    9.7387 O   0  0  0  0  0  0  0  0  0  0  0  0
   20.8871    0.1172   11.0906 O   0  0  0  0  0  0  0  0  0  0  0  0
   18.2239    1.1783   11.0268 C   0  0  1  0  0  0  0  0  0  0  0  0
   17.1717    0.6903   11.9480 C   0  0  0  0  0  0  0  0  0  0  0  0
   17.7224   -0.7150   12.3696 O   0  0  0  0  0  0  0  0  0  0  0  0
   18.5514   -2.1918   10.4295 C   0  0  2  0  0  0  0  0  0  0  0  0
   19.5548   -3.1236    9.9690 C   0  0  0  0  0  0  0  0  0  0  0  0
   19.1608   -4.3989    9.7147 C   0  0  0  0  0  0  0  0  0  0  0  0
   18.1934   -4.9391   10.4530 C   0  0  0  0  0  0  0  0  0  0  0  0
  1  2  1  0
  2  3  1  0
  3  4  1  0
  1  5  1  0
  1  6  1  0
  7  4  1  6
  6  7  1  0
  7  8  1  0
  3  9  1  1
  8 10  1  0
 10 11  1  0
  9 12  2  0
 10 13  1  1
 11 14  1  0
  8 15  1  1
 11 16  1  6
 11 17  1  0
 15 17  1  0
 17 18  1  1
 14 19  1  6
 18 19  1  0
 13 20  1  0
 14 20  1  0
 20 21  1  6
 21 22  1  0
 22 23  2  0
M  END
$$$$
22
     RDKit          3D

 23 24  0  0  0  0  0  0  0  0999 V2000
   21.0172    0.6204   11.3140 N   0  0  0  0  0  0  0  0  0  0  0  0
   19.8916    0.1815   10.8187 C   0  0  1  0  0  0  0  0  0  0  0  0
   18.7336    0.8365   11.2625 C   0  0  2  0  0  0  0  0  0  0  0  0
   17.8982    1.2438   10.2421 N   0  0  0  0  0  0  0  0  0  0  0  0
   16.6953    1.7787   10.5910 O   0  0  0  0  0  0  0  0  0  0  0  0
   19.8226   -0.7230    9.7628 C   0  0  2  0  0  0  0  0  0  0  0  0
   20.8749   -1.4329    9.3267 O   0  0  0  0  0  0  0  0  0  0  0  0
   17.6264    0.2171    9.2423 C   0  0  1  0  0  0  0  0  0  0  0  0
   18.5488    1.3319   12.5398 O   0  0  0  0  0  0  0  0  0  0  0  0
   18.8569   -0.4520    8.7990 C   0  0  2  0  0  0  0  0  0  0  0  0
   18.8504   -0.9929    7.5367 O   0  0  0  0  0  0  0  0  0  0  0  0
   18.1763    0.5120   13.5739 C   0  0  0  0  0  0  0  0  0  0  0  0
   18.9783   -0.2371   14.3271 C   0  0  0  0  0  0  0  0  0  0  0  0
   18.3707   -0.7593   15.4250 C   0  0  0  0  0  0  0  0  0  0  0  0
   16.7686    0.4131   13.8486 C   0  0  0  0  0  0  0  0  0  0  0  0
   16.2773   -0.0614   14.9949 C   0  0  0  0  0  0  0  0  0  0  0  0
   16.6452   -0.7803    9.8809 O   0  0  0  0  0  0  0  0  0  0  0  0
   17.9458   -1.8258    6.8817 C   0  0  0  0  0  0  0  0  0  0  0  0
   17.1677   -0.6354   15.8360 C   0  0  0  0  0  0  0  0  0  0  0  0
   19.2044   -1.6129   16.4053 C   0  0  0  0  0  0  0  0  0  0  0  0
   17.3724   -1.0766    5.7561 C   0  0  0  0  0  0  0  0  0  0  0  0
   17.6656    0.1981    5.4727 O   0  0  0  0  0  0  0  0  0  0  0  0
   18.7697    0.8958    5.0280 C   0  0  0  0  0  0  0  0  0  0  0  0
  2  1  1  6
  2  3  1  0
  3  4  1  0
  4  5  1  0
  2  6  1  0
  6  7  1  6
  4  8  1  0
  3  9  1  6
  6 10  1  0
  8 10  1  0
 10 11  1  1
  9 12  1  0
 12 13  1  0
 13 14  1  0
 12 15  1  0
 15 16  1  0
  8 17  1  1
 11 18  1  0
 14 19  1  0
 16 19  1  0
 14 20  1  0
 18 21  1  0
 21 22  1  0
 22 23  1  0
M  END
$$$$
23
     RDKit          3D

 24 27  0  0  0  0  0  0  0  0999 V2000
   17.9618    0.0112   18.4162 C   0  0  0  0  0  0  0  0  0  0  0  0
   18.2732   -1.1470   17.8771 C   0  0  0  0  0  0  0  0  0  0  0  0
   18.2797   -1.3511   16.5804 C   0  0  0  0  0  0  0  0  0  0  0  0
   17.8601   -0.4989   15.5950 C   0  0  0  0  0  0  0  0  0  0  0  0
   17.4086    1.0122   17.4898 C   0  0  0  0  0  0  0  0  0  0  0  0
   17.5424    0.6611   16.0378 C   0  0  0  0  0  0  0  0  0  0  0  0
   17.9871   -0.8280   14.0818 C   0  0  0  0  0  0  0  0  0  0  0  0
   17.5003    0.1485   13.3087 C   0  0  0  0  0  0  0  0  0  0  0  0
   18.4031    0.5954   12.2932 N   0  0  0  0  0  0  0  0  0  0  0  0
   17.9216    0.9575   10.9910 C   0  0  0  0  0  0  0  0  0  0  0  0
   19.7601    0.6355   12.4295 C   0  0  0  0  0  0  0  0  0  0  0  0
   20.5149    1.0879   11.2921 C   0  0  0  0  0  0  0  0  0  0  0  0
   16.7165    0.4608   10.7294 O   0  0  0  0  0  0  0  0  0  0  0  0
   19.9318    0.8530    9.9917 N   0  0  0  0  0  0  0  0  0  0  0  0
   18.6147    1.5798   10.0736 C   0  0  1  0  0  0  0  0  0  0  0  0
   17.9209    1.5678    8.7253 C   0  0  0  0  0  0  0  0  0  0  0  0
   20.2125    0.0270    9.0214 C   0  0  0  0  0  0  0  0  0  0  0  0
   18.1446    0.5322    7.9901 C   0  0  2  0  0  0  0  0  0  0  0  0
   19.3527   -0.2485    8.0220 C   0  0  2  0  0  0  0  0  0  0  0  0
   17.2414    0.3656    6.6818 C   0  0  0  0  0  0  0  0  0  0  0  0
   21.4858   -0.4831    9.3180 O   0  0  0  0  0  0  0  0  0  0  0  0
   17.2249   -0.7419    6.0062 C   0  0  0  0  0  0  0  0  0  0  0  0
   19.1814   -1.5000    7.3234 C   0  0  0  0  0  0  0  0  0  0  0  0
   18.1777   -1.6666    6.2129 C   0  0  0  0  0  0  0  0  0  0  0  0
  1  2  1  0
  2  3  1  0
  3  4  1  0
  1  5  1  0
  4  6  1  0
  5  6  1  0
  4  7  1  0
  7  8  1  0
  8  9  1  0
  9 10  1  0
  9 11  1  0
 11 12  1  0
 10 13  2  0
 12 14  1  0
 10 15  1  0
 14 15  1  0
 15 16  1  6
 14 17  1  0
 18 16  1  6
 17 19  1  0
 18 19  1  0
 18 20  1  0
 17 21  2  0
 20 22  1  0
 19 23  1  1
 22 24  1  0
 23 24  1  0
M  END
$$$$
24
     RDKit          3D

 25 29  0  0  0  0  0  0  0  0999 V2000
   16.6028   -4.4775    9.3104 C   0  0  0  0  0  0  0  0  0  0  0  0
   17.2116   -3.3166    9.2817 C   0  0  0  0  0  0  0  0  0  0  0  0
   18.2502   -2.8801    9.8692 C   0  0  0  0  0  0  0  0  0  0  0  0
   18.7433   -1.4733    9.7300 N   0  0  0  0  0  0  0  0  0  0  0  0
   18.2767   -0.7141    8.8425 C   0  0  1  0  0  0  0  0  0  0  0  0
   18.9311    0.6234    8.9293 C   0  0  1  0  0  0  0  0  0  0  0  0
   17.2002   -5.5159    9.0496 C   0  0  0  0  0  0  0  0  0  0  0  0
   17.4366   -1.0211    7.8308 O   0  0  0  0  0  0  0  0  0  0  0  0
   19.7513   -1.0286   10.8319 C   0  0  1  0  0  0  0  0  0  0  0  0
   17.5621   -0.4559    6.6497 C   0  0  2  0  0  0  0  0  0  0  0  0
   18.3790    1.6268    8.2054 O   0  0  0  0  0  0  0  0  0  0  0  0
   19.6916    0.3723   10.3652 C   0  0  1  0  0  0  0  0  0  0  0  0
   18.7045   -5.5549    9.5260 C   0  0  0  0  0  0  0  0  0  0  0  0
   19.1946   -4.2429    9.6142 C   0  0  0  0  0  0  0  0  0  0  0  0
   20.5275    1.2453   11.0570 C   0  0  1  0  0  0  0  0  0  0  0  0
   20.3147    2.6034   11.0336 N   0  0  0  0  0  0  0  0  0  0  0  0
   20.6061    0.7355   12.3586 O   0  0  0  0  0  0  0  0  0  0  0  0
   18.2877    0.9651    6.7745 C   0  0  2  0  0  0  0  0  0  0  0  0
   18.2186    1.9438    5.7803 C   0  0  0  0  0  0  0  0  0  0  0  0
   19.3056    0.3592   12.6074 C   0  0  2  0  0  0  0  0  0  0  0  0
   19.0923   -0.9376   12.1261 C   0  0  0  0  0  0  0  0  0  0  0  0
   17.0936   -0.8049    5.4735 C   0  0  0  0  0  0  0  0  0  0  0  0
   17.4771   -0.0378    4.3093 C   0  0  0  0  0  0  0  0  0  0  0  0
   18.2385    1.2257    4.3687 C   0  0  0  0  0  0  0  0  0  0  0  0
   18.1652    1.2676   12.4354 O   0  0  0  0  0  0  0  0  0  0  0  0
  1  2  1  0
  2  3  1  0
  3  4  1  0
  4  5  1  0
  5  6  1  0
  1  7  1  0
  5  8  1  6
  4  9  1  0
  8 10  1  0
  6 11  1  1
  6 12  1  0
  9 12  1  0
  7 13  1  0
  3 14  1  0
 13 14  1  0
 12 15  1  6
 15 16  1  1
 15 17  1  0
 10 18  1  0
 11 18  1  0
 18 19  1  6
 17 20  1  0
  9 21  1  1
 20 21  1  0
 10 22  1  1
 22 23  1  0
 19 24  1  0
 23 24  1  0
 20 25  1  6
M  END
$$$$
25
     RDKit          3D

 25 29  0  0  0  0  0  0  0  0999 V2000
   18.7669   -2.0629   15.8816 C   0  0  0  0  0  0  0  0  0  0  0  0
   18.2939   -1.4542   16.9168 C   0  0  0  0  0  0  0  0  0  0  0  0
   18.5140   -1.4731   14.6004 C   0  0  2  0  0  0  0  0  0  0  0  0
   18.9159   -1.9595   13.4056 C   0  0  0  0  0  0  0  0  0  0  0  0
   18.0068   -0.1594   14.8235 C   0  0  0  0  0  0  0  0  0  0  0  0
   17.7593    0.6187   13.5942 C   0  0  2  0  0  0  0  0  0  0  0  0
   18.6507   -1.1781   12.2583 C   0  0  0  0  0  0  0  0  0  0  0  0
   17.6155    0.6310   15.9694 C   0  0  0  0  0  0  0  0  0  0  0  0
   17.9199   -0.1899   17.1646 C   0  0  0  0  0  0  0  0  0  0  0  0
   18.9853   -1.6649   10.9655 N   0  0  0  0  0  0  0  0  0  0  0  0
   17.0984    1.8218   13.6510 O   0  0  0  0  0  0  0  0  0  0  0  0
   19.4803   -2.8034   10.7367 C   0  0  0  0  0  0  0  0  0  0  0  0
   17.8788    2.8401   13.1992 C   0  0  0  0  0  0  0  0  0  0  0  0
   18.8695   -3.8643   10.9311 O   0  0  0  0  0  0  0  0  0  0  0  0
   18.4957   -0.7002    9.8775 C   0  0  1  0  0  0  0  0  0  0  0  0
   20.3728   -2.8347    9.5632 N   0  0  0  0  0  0  0  0  0  0  0  0
   18.0623    0.1224   12.3678 C   0  0  0  0  0  0  0  0  0  0  0  0
   17.4335    3.4196   11.9083 C   0  0  0  0  0  0  0  0  0  0  0  0
   17.9233    0.5316   10.8608 C   0  0  1  0  0  0  0  0  0  0  0  0
   16.5715    4.4310   11.8662 O   0  0  0  0  0  0  0  0  0  0  0  0
   19.3827   -0.0437    8.9824 C   0  0  0  0  0  0  0  0  0  0  0  0
   17.7159    2.8552   10.7069 N   0  0  0  0  0  0  0  0  0  0  0  0
   17.9683    3.8141    9.6610 C   0  0  0  0  0  0  0  0  0  0  0  0
   18.2697    1.7399   10.1795 C   0  0  2  0  0  0  0  0  0  0  0  0
   18.9636    1.3552    9.0386 C   0  0  0  0  0  0  0  0  0  0  0  0
  1  2  1  0
  3  1  1  1
  3  4  1  0
  3  5  1  0
  5  6  1  0
  4  7  1  0
  5  8  1  0
  2  9  1  0
  8  9  1  0
  7 10  1  0
  6 11  1  6
 10 12  1  0
 11 13  1  0
 12 14  2  0
 10 15  1  0
 12 16  1  0
  6 17  1  0
  7 17  1  0
 13 18  1  0
 15 19  1  0
 19 17  1  1
 18 20  2  0
 15 21  1  6
 18 22  1  0
 22 23  1  0
 19 24  1  0
 22 24  1  0
 21 25  1  0
 24 25  1  6
M  END
$$$$
26
     RDKit          3D

 26 29  0  0  0  0  0  0  0  0999 V2000
   20.8522    0.3905   10.7967 O   0  0  0  0  0  0  0  0  0  0  0  0
   19.8548   -0.3149   10.2966 C   0  0  2  0  0  0  0  0  0  0  0  0
   18.5933    0.3763   10.5953 C   0  0  1  0  0  0  0  0  0  0  0  0
   19.8129   -1.6972   10.9343 C   0  0  1  0  0  0  0  0  0  0  0  0
   18.5805    1.6560   10.0649 N   0  0  0  0  0  0  0  0  0  0  0  0
   17.9136    2.6817   10.8110 C   0  0  0  0  0  0  0  0  0  0  0  0
   18.4967   -1.7589   11.3653 C   0  0  2  0  0  0  0  0  0  0  0  0
   19.2919    2.2404    9.0332 C   0  0  0  0  0  0  0  0  0  0  0  0
   18.0200    3.9363   10.2891 C   0  0  2  0  0  0  0  0  0  0  0  0
   17.1479    2.4730   11.9901 O   0  0  0  0  0  0  0  0  0  0  0  0
   17.7735   -0.8647   10.4113 C   0  0  2  0  0  0  0  0  0  0  0  0
   18.2693   -1.4745   12.6883 O   0  0  0  0  0  0  0  0  0  0  0  0
   19.1843   -1.0026   13.5775 C   0  0  0  0  0  0  0  0  0  0  0  0
   18.5316    3.0102    8.2937 N   0  0  0  0  0  0  0  0  0  0  0  0
   17.2557    4.9888   11.2291 C   0  0  0  0  0  0  0  0  0  0  0  0
   17.1551   -1.1510    9.4398 O   0  0  0  0  0  0  0  0  0  0  0  0
   18.6551   -0.8045   14.9561 C   0  0  0  0  0  0  0  0  0  0  0  0
   17.2305    3.5270   12.8570 C   0  0  0  0  0  0  0  0  0  0  0  0
   18.3884    4.3486    9.1687 C   0  0  0  0  0  0  0  0  0  0  0  0
   18.6781   -1.9663   15.7430 C   0  0  0  0  0  0  0  0  0  0  0  0
   17.1781   -0.3550   15.0019 C   0  0  0  0  0  0  0  0  0  0  0  0
   16.9485    4.7198   12.4428 C   0  0  0  0  0  0  0  0  0  0  0  0
   18.3217   -2.0840   16.8821 C   0  0  0  0  0  0  0  0  0  0  0  0
   17.0476   -1.3224   17.2578 C   0  0  0  0  0  0  0  0  0  0  0  0
   16.7007   -0.1704   16.3908 C   0  0  0  0  0  0  0  0  0  0  0  0
   20.2692   -2.5861    9.8942 O   0  0  0  0  0  0  0  0  0  0  0  0
  2  1  1  1
  2  3  1  0
  2  4  1  0
  3  5  1  6
  5  6  1  0
  4  7  1  0
  5  8  1  0
  6  9  1  0
  6 10  1  0
  3 11  1  0
  7 11  1  0
  7 12  1  1
 12 13  1  0
  8 14  1  0
  9 15  1  6
 11 16  1  6
 13 17  1  0
 10 18  1  0
  9 19  1  0
 14 19  1  0
 17 20  1  0
 17 21  1  0
 15 22  1  0
 18 22  1  0
 20 23  1  0
 23 24  1  0
 21 25  1  0
 24 25  1  0
  4 26  1  6
M  END
$$$$
27
     RDKit          3D

 26 31  0  0  0  0  0  0  0  0999 V2000
   18.7278    2.1592    6.3069 C   0  0  0  0  0  0  0  0  0  0  0  0
   18.8097    1.6431    7.3913 C   0  0  0  0  0  0  0  0  0  0  0  0
   18.4897    0.2546    7.6622 C   0  0  2  0  0  0  0  0  0  0  0  0
   18.6365   -0.3121    9.0004 C   0  0  1  0  0  0  0  0  0  0  0  0
   18.5930    1.2586    5.1033 C   0  0  0  0  0  0  0  0  0  0  0  0
   18.2413   -0.6519    6.5599 C   0  0  2  0  0  0  0  0  0  0  0  0
   18.0341   -2.0246    6.7342 C   0  0  0  0  0  0  0  0  0  0  0  0
   18.3472   -0.0001    5.1844 C   0  0  0  0  0  0  0  0  0  0  0  0
   17.9720   -2.5204    8.0469 C   0  0  0  0  0  0  0  0  0  0  0  0
   18.9531    0.5491   10.1193 C   0  0  0  0  0  0  0  0  0  0  0  0
   18.3742   -1.7049    9.0280 C   0  0  2  0  0  0  0  0  0  0  0  0
   18.2281   -2.0144   10.4787 C   0  0  0  0  0  0  0  0  0  0  0  0
   18.1773   -3.4866   10.7034 O   0  0  0  0  0  0  0  0  0  0  0  0
   19.0537   -0.0183   11.3471 C   0  0  1  0  0  0  0  0  0  0  0  0
   18.6755   -1.3687   11.5317 N   0  0  0  0  0  0  0  0  0  0  0  0
   20.2831    0.1790   11.8670 N   0  0  0  0  0  0  0  0  0  0  0  0
   21.3783    0.1304   11.0402 O   0  0  0  0  0  0  0  0  0  0  0  0
   18.4203   -1.7998   12.8623 C   0  0  0  0  0  0  0  0  0  0  0  0
   18.8946   -0.8631   13.8948 C   0  0  2  0  0  0  0  0  0  0  0  0
   18.5561   -1.2763   15.2512 C   0  0  0  0  0  0  0  0  0  0  0  0
   18.6718   -0.4531   16.3620 C   0  0  1  0  0  0  0  0  0  0  0  0
   18.7973    0.9496   16.0824 C   0  0  0  0  0  0  0  0  0  0  0  0
   18.7643    1.4493   14.8038 C   0  0  0  0  0  0  0  0  0  0  0  0
   18.8741    0.5475   13.7128 C   0  0  1  0  0  0  0  0  0  0  0  0
   19.3720    0.9922   12.3906 C   0  0  2  0  0  0  0  0  0  0  0  0
   18.3783   -1.0159   17.8792 Cl  0  0  0  0  0  0  0  0  0  0  0  0
  1  2  1  0
  3  2  1  6
  3  4  1  0
  1  5  1  0
  3  6  1  0
  6  7  1  6
  5  8  1  0
  6  8  1  0
  7  9  1  0
  4 10  1  1
  4 11  1  0
 11  9  1  6
 11 12  1  0
 12 13  2  0
 14 10  1  6
 12 15  1  0
 14 15  1  0
 14 16  1  0
 16 17  1  0
 15 18  1  0
 19 18  1  6
 19 20  1  0
 20 21  1  0
 21 22  1  0
 22 23  1  0
 19 24  1  0
 24 23  1  1
 14 25  1  0
 25 16  1  1
 24 25  1  0
 21 26  1  1
M  END
$$$$
28
     RDKit          3D

 26 31  0  0  0  0  0  0  0  0999 V2000
   18.7278    2.1592    6.3069 C   0  0  0  0  0  0  0  0  0  0  0  0
   18.8097    1.6431    7.3913 C   0  0  0  0  0  0  0  0  0  0  0  0
   18.4897    0.2546    7.6622 C   0  0  2  0  0  0  0  0  0  0  0  0
   18.6365   -0.3121    9.0004 C   0  0  1  0  0  0  0  0  0  0  0  0
   18.5930    1.2586    5.1033 C   0  0  0  0  0  0  0  0  0  0  0  0
   18.2413   -0.6519    6.5599 C   0  0  2  0  0  0  0  0  0  0  0  0
   18.0341   -2.0246    6.7342 C   0  0  0  0  0  0  0  0  0  0  0  0
   18.3472   -0.0001    5.1844 C   0  0  0  0  0  0  0  0  0  0  0  0
   17.9720   -2.5204    8.0469 C   0  0  0  0  0  0  0  0  0  0  0  0
   18.9531    0.5491   10.1193 C   0  0  0  0  0  0  0  0  0  0  0  0
   18.3742   -1.7049    9.0280 C   0  0  2  0  0  0  0  0  0  0  0  0
   18.2281   -2.0144   10.4787 C   0  0  0  0  0  0  0  0  0  0  0  0
   18.1773   -3.4866   10.7034 O   0  0  0  0  0  0  0  0  0  0  0  0
   19.0537   -0.0183   11.3471 C   0  0  1  0  0  0  0  0  0  0  0  0
   18.6755   -1.3687   11.5317 N   0  0  0  0  0  0  0  0  0  0  0  0
   20.2831    0.1790   11.8670 N   0  0  0  0  0  0  0  0  0  0  0  0
   21.3783    0.1304   11.0402 O   0  0  0  0  0  0  0  0  0  0  0  0
   18.4203   -1.7998   12.8623 C   0  0  0  0  0  0  0  0  0  0  0  0
   18.8946   -0.8631   13.8948 C   0  0  2  0  0  0  0  0  0  0  0  0
   18.5561   -1.2763   15.2512 C   0  0  0  0  0  0  0  0  0  0  0  0
   18.6718   -0.4531   16.3620 C   0  0  1  0  0  0  0  0  0  0  0  0
   18.7973    0.9496   16.0824 C   0  0  0  0  0  0  0  0  0  0  0  0
   18.5335   -1.0746   17.6502 C   0  0  0  0  0  0  0  0  0  0  0  0
   18.8812    1.4292   14.7813 C   0  0  0  0  0  0  0  0  0  0  0  0
   18.8348    0.5611   13.7239 C   0  0  1  0  0  0  0  0  0  0  0  0
   19.0520    1.1301   12.3572 C   0  0  2  0  0  0  0  0  0  0  0  0
  1  2  1  0
  3  2  1  6
  3  4  1  0
  1  5  1  0
  3  6  1  0
  6  7  1  6
  5  8  1  0
  6  8  1  0
  7  9  1  0
  4 10  1  1
  4 11  1  0
 11  9  1  6
 11 12  1  0
 12 13  2  0
 14 10  1  6
 12 15  1  0
 14 15  1  0
 14 16  1  0
 16 17  1  0
 15 18  1  0
 19 18  1  6
 19 20  1  0
 20 21  1  0
 21 22  1  0
 21 23  1  1
 22 24  1  0
 19 25  1  0
 25 24  1  1
 14 26  1  0
 26 16  1  1
 25 26  1  0
M  END
$$$$
29
     RDKit          3D

 26 30  0  0  0  0  0  0  0  0999 V2000
   18.1202    1.3032   17.9985 C   0  0  0  0  0  0  0  0  0  0  0  0
   18.3012    0.0350   17.9524 C   0  0  0  0  0  0  0  0  0  0  0  0
   18.0451   -0.6737   16.8169 C   0  0  0  0  0  0  0  0  0  0  0  0
   17.4938    0.0636   15.6356 C   0  0  1  0  0  0  0  0  0  0  0  0
   17.3187    1.4386   15.7176 C   0  0  2  0  0  0  0  0  0  0  0  0
   17.0110    2.1701   14.5810 N   0  0  0  0  0  0  0  0  0  0  0  0
   17.6958    2.0908   16.8503 C   0  0  0  0  0  0  0  0  0  0  0  0
   17.4647    1.6687   13.3009 C   0  0  1  0  0  0  0  0  0  0  0  0
   17.4689    2.4267   12.2470 N   0  0  0  0  0  0  0  0  0  0  0  0
   17.7220    1.8393   10.9972 C   0  0  0  0  0  0  0  0  0  0  0  0
   18.0437    0.4882   13.1763 C   0  0  2  0  0  0  0  0  0  0  0  0
   18.2499    0.4507   11.5839 C   0  0  2  0  0  0  0  0  0  0  0  0
   17.8956   -0.4997   14.2660 C   0  0  0  0  0  0  0  0  0  0  0  0
   17.0861    3.9232   12.0639 C   0  0  0  0  0  0  0  0  0  0  0  0
   18.3469    4.7075   12.0574 C   0  0  0  0  0  0  0  0  0  0  0  0
   18.3872    5.6068   13.0027 C   0  0  0  0  0  0  0  0  0  0  0  0
   19.0424    4.7765   10.9195 C   0  0  0  0  0  0  0  0  0  0  0  0
   19.5971    6.4160   13.0813 C   0  0  0  0  0  0  0  0  0  0  0  0
   20.1870    5.6160   10.8460 C   0  0  0  0  0  0  0  0  0  0  0  0
   20.3745    6.4319   11.9913 C   0  0  0  0  0  0  0  0  0  0  0  0
   18.9038   -0.5827   10.8584 C   0  0  0  0  0  0  0  0  0  0  0  0
   19.8343   -0.2223   10.0259 C   0  0  0  0  0  0  0  0  0  0  0  0
   18.4909   -1.9132   11.0379 C   0  0  0  0  0  0  0  0  0  0  0  0
   18.8920   -2.8039   10.3309 C   0  0  0  0  0  0  0  0  0  0  0  0
   20.3478   -1.2892    9.2311 C   0  0  0  0  0  0  0  0  0  0  0  0
   19.9282   -2.5692    9.4070 C   0  0  0  0  0  0  0  0  0  0  0  0
  1  2  1  0
  2  3  1  0
  4  3  1  1
  4  5  1  0
  5  6  1  0
  1  7  1  0
  5  7  1  6
  8  6  1  1
  8  9  1  0
  9 10  1  0
  8 11  1  0
 10 12  1  0
 11 12  1  0
  4 13  1  0
 11 13  1  6
  9 14  1  0
 14 15  1  0
 15 16  1  0
 15 17  1  0
 16 18  1  0
 17 19  1  0
 18 20  1  0
 19 20  1  0
 12 21  1  1
 21 22  1  0
 21 23  1  0
 23 24  1  0
 22 25  1  0
 24 26  1  0
 25 26  1  0
M  END
$$$$
3
     RDKit          3D

 10 11  0  0  0  0  0  0  0  0999 V2000
   19.0881   -2.2270   16.7779 C   0  0  0  0  0  0  0  0  0  0  0  0
   18.6073   -1.2451   17.5844 C   0  0  0  0  0  0  0  0  0  0  0  0
   17.9135   -0.3247   16.9495 C   0  0  1  0  0  0  0  0  0  0  0  0
   17.3621    0.8672   17.7407 C   0  0  0  0  0  0  0  0  0  0  0  0
   18.8079   -2.2346   15.3581 C   0  0  0  0  0  0  0  0  0  0  0  0
   17.6860   -0.2066   15.5794 C   0  0  1  0  0  0  0  0  0  0  0  0
   16.9916    0.9485   15.0506 C   0  0  0  0  0  0  0  0  0  0  0  0
   16.8535    1.9388   17.1639 C   0  0  0  0  0  0  0  0  0  0  0  0
   18.2325   -1.1501   14.6959 C   0  0  0  0  0  0  0  0  0  0  0  0
   16.8544    2.0920   15.8854 C   0  0  0  0  0  0  0  0  0  0  0  0
  1  2  1  0
  3  2  1  6
  3  4  1  0
  1  5  1  0
  3  6  1  0
  6  7  1  6
  4  8  1  0
  5  9  1  0
  6  9  1  0
  7 10  1  0
  8 10  1  0
M  END
$$$$
30
     RDKit          3D

 26 31  0  0  0  0  0  0  0  0999 V2000
   17.9618    0.0112   18.4162 C   0  0  0  0  0  0  0  0  0  0  0  0
   17.4745    0.8812   17.4553 C   0  0  1  0  0  0  0  0  0  0  0  0
   17.3103    2.2036   17.7683 C   0  0  0  0  0  0  0  0  0  0  0  0
   18.1031   -1.3449   17.9141 C   0  0  2  0  0  0  0  0  0  0  0  0
   18.2488    3.1817   18.0157 C   0  0  0  0  0  0  0  0  0  0  0  0
   18.7913    3.6225   16.7684 C   0  0  0  0  0  0  0  0  0  0  0  0
   18.6993   -2.3197   18.7987 F   0  0  0  0  0  0  0  0  0  0  0  0
   18.7951    2.5868   15.6689 C   0  0  2  0  0  0  0  0  0  0  0  0
   18.8395   -1.4592   16.6624 C   0  0  0  0  0  0  0  0  0  0  0  0
   18.2806   -1.0133   15.6895 C   0  0  2  0  0  0  0  0  0  0  0  0
   18.7629    3.1852   14.3967 N   0  0  0  0  0  0  0  0  0  0  0  0
   18.5548   -1.2418   14.3485 C   0  0  0  0  0  0  0  0  0  0  0  0
   17.9390    0.5549   15.8398 C   0  0  2  0  0  0  0  0  0  0  0  0
   18.0369    1.5505   15.0728 C   0  0  2  0  0  0  0  0  0  0  0  0
   17.8157    1.5479   13.8038 N   0  0  0  0  0  0  0  0  0  0  0  0
   19.3226    4.6468   14.2635 C   0  0  0  0  0  0  0  0  0  0  0  0
   19.0151    5.1550   12.9018 C   0  0  0  0  0  0  0  0  0  0  0  0
   18.1071   -0.6111   13.2256 N   0  0  0  0  0  0  0  0  0  0  0  0
   18.9293    4.1720   11.9760 O   0  0  0  0  0  0  0  0  0  0  0  0
   18.2859    2.6135   13.3563 C   0  0  1  0  0  0  0  0  0  0  0  0
   17.9973    0.5524   12.8186 C   0  0  1  0  0  0  0  0  0  0  0  0
   18.0789    3.1706   12.0042 C   0  0  2  0  0  0  0  0  0  0  0  0
   18.4449    2.1003   10.9795 C   0  0  2  0  0  0  0  0  0  0  0  0
   17.8777    0.8354   11.4249 C   0  0  2  0  0  0  0  0  0  0  0  0
   19.8881    2.0452   10.8752 O   0  0  0  0  0  0  0  0  0  0  0  0
   16.3921    0.8850   11.1124 O   0  0  0  0  0  0  0  0  0  0  0  0
  2  1  1  1
  2  3  1  0
  1  4  1  0
  3  5  1  0
  5  6  1  0
  4  7  1  1
  8  6  1  1
  4  9  1  0
 10  9  1  1
  8 11  1  0
 10 12  1  0
 13  2  1  1
 10 13  1  0
  8 14  1  0
 13 14  1  0
 14 15  1  6
 11 16  1  0
 16 17  1  0
 12 18  1  0
 17 19  1  0
 20 11  1  1
 15 20  1  0
 15 21  1  0
 21 18  1  1
 22 19  1  6
 20 22  1  0
 22 23  1  0
 21 24  1  0
 23 24  1  0
 23 25  1  1
 24 26  1  1
M  END
$$$$
31
     RDKit          3D

 26 29  0  0  0  0  0  0  0  0999 V2000
   17.9618    0.0112   18.4162 C   0  0  0  0  0  0  0  0  0  0  0  0
   18.2732   -1.1470   17.8771 C   0  0  0  0  0  0  0  0  0  0  0  0
   18.2797   -1.3511   16.5804 C   0  0  0  0  0  0  0  0  0  0  0  0
   17.8601   -0.4989   15.5950 C   0  0  0  0  0  0  0  0  0  0  0  0
   17.4086    1.0122   17.4898 C   0  0  0  0  0  0  0  0  0  0  0  0
   17.5424    0.6611   16.0378 C   0  0  0  0  0  0  0  0  0  0  0  0
   17.9871   -0.8280   14.0818 C   0  0  0  0  0  0  0  0  0  0  0  0
   17.5003    0.1485   13.3087 C   0  0  0  0  0  0  0  0  0  0  0  0
   18.4031    0.5954   12.2932 N   0  0  0  0  0  0  0  0  0  0  0  0
   17.9216    0.9575   10.9910 C   0  0  0  0  0  0  0  0  0  0  0  0
   19.7601    0.6355   12.4295 C   0  0  0  0  0  0  0  0  0  0  0  0
   20.5149    1.0879   11.2921 C   0  0  0  0  0  0  0  0  0  0  0  0
   16.7165    0.4608   10.7294 O   0  0  0  0  0  0  0  0  0  0  0  0
   19.9318    0.8530    9.9917 N   0  0  0  0  0  0  0  0  0  0  0  0
   18.6147    1.5798   10.0736 C   0  0  1  0  0  0  0  0  0  0  0  0
   17.9209    1.5678    8.7253 C   0  0  0  0  0  0  0  0  0  0  0  0
   20.2125    0.0270    9.0214 C   0  0  0  0  0  0  0  0  0  0  0  0
   18.1446    0.5322    7.9901 C   0  0  2  0  0  0  0  0  0  0  0  0
   21.0888   -0.8832    9.4810 N   0  0  0  0  0  0  0  0  0  0  0  0
   19.5585    0.0279    7.8923 C   0  0  0  0  0  0  0  0  0  0  0  0
   17.7845    0.6056    6.3945 C   0  0  0  0  0  0  0  0  0  0  0  0
   16.7449   -0.2770    6.0349 C   0  0  0  0  0  0  0  0  0  0  0  0
   18.2727    1.4274    5.5414 C   0  0  0  0  0  0  0  0  0  0  0  0
   17.9862    1.2189    4.1731 C   0  0  0  0  0  0  0  0  0  0  0  0
   17.3093    0.0812    3.7982 C   0  0  0  0  0  0  0  0  0  0  0  0
   16.6590   -0.6556    4.7197 C   0  0  0  0  0  0  0  0  0  0  0  0
  1  2  1  0
  2  3  1  0
  3  4  1  0
  1  5  1  0
  4  6  1  0
  5  6  1  0
  4  7  1  0
  7  8  1  0
  8  9  1  0
  9 10  1  0
  9 11  1  0
 11 12  1  0
 10 13  2  0
 12 14  1  0
 10 15  1  0
 14 15  1  0
 15 16  1  6
 14 17  1  0
 16 18  1  0
 17 19  2  0
 17 20  1  0
 18 20  1  0
 18 21  1  6
 21 22  1  0
 21 23  1  0
 23 24  1  0
 24 25  1  0
 22 26  1  0
 25 26  1  0
M  END
$$$$
32
     RDKit          3D

 26 30  0  0  0  0  0  0  0  0999 V2000
   18.1202    1.3032   17.9985 C   0  0  0  0  0  0  0  0  0  0  0  0
   17.7689    1.7286   16.8392 C   0  0  1  0  0  0  0  0  0  0  0  0
   18.2396   -0.0649   18.0329 C   0  0  0  0  0  0  0  0  0  0  0  0
   17.5554    3.1031   16.5587 N   0  0  0  0  0  0  0  0  0  0  0  0
   17.7634    0.8435   15.7280 C   0  0  2  0  0  0  0  0  0  0  0  0
   17.8388    3.4339   15.1641 C   0  0  0  0  0  0  0  0  0  0  0  0
   18.1542   -0.9641   17.0208 C   0  0  0  0  0  0  0  0  0  0  0  0
   17.9544   -0.4425   15.7726 C   0  0  0  0  0  0  0  0  0  0  0  0
   17.8750    2.2009   14.4103 C   0  0  2  0  0  0  0  0  0  0  0  0
   17.8296    1.6338   13.1534 C   0  0  1  0  0  0  0  0  0  0  0  0
   17.6069    0.5703   12.5766 C   0  0  2  0  0  0  0  0  0  0  0  0
   18.0528    2.8464   12.1579 C   0  0  0  0  0  0  0  0  0  0  0  0
   17.5564   -0.5536   13.5566 O   0  0  0  0  0  0  0  0  0  0  0  0
   17.9851   -1.1127   14.6000 C   0  0  0  0  0  0  0  0  0  0  0  0
   17.9925    0.2694   11.2840 C   0  0  0  0  0  0  0  0  0  0  0  0
   18.1441    2.5509   10.8004 C   0  0  1  0  0  0  0  0  0  0  0  0
   18.0120    1.2695   10.3563 C   0  0  1  0  0  0  0  0  0  0  0  0
   18.2388    3.9107    9.7874 Cl  0  0  0  0  0  0  0  0  0  0  0  0
   18.1296    1.0604    8.9061 C   0  0  0  0  0  0  0  0  0  0  0  0
   17.5392   -0.1297    8.3744 C   0  0  1  0  0  0  0  0  0  0  0  0
   17.6833   -0.2607    6.9515 C   0  0  1  0  0  0  0  0  0  0  0  0
   16.7989   -1.1226    6.2624 N   0  0  0  0  0  0  0  0  0  0  0  0
   18.1415    0.8236    6.2086 O   0  0  0  0  0  0  0  0  0  0  0  0
   17.1182   -1.1798    9.1007 O   0  0  0  0  0  0  0  0  0  0  0  0
   16.9985   -1.0236    4.9061 C   0  0  0  0  0  0  0  0  0  0  0  0
   18.1833    0.2711    4.8070 C   0  0  0  0  0  0  0  0  0  0  0  0
  2  1  1  6
  1  3  1  0
  2  4  1  0
  2  5  1  0
  4  6  1  0
  3  7  1  0
  5  8  1  1
  7  8  1  0
  5  9  1  0
  9  6  1  6
  9 10  1  0
 10 11  1  0
 10 12  1  6
 11 13  1  0
  8 14  1  0
 13 14  1  0
 11 15  1  6
 12 16  1  0
 15 17  1  0
 16 17  1  0
 16 18  1  6
 17 19  1  6
 19 20  1  0
 20 21  1  0
 21 22  1  6
 21 23  1  0
 20 24  1  1
 22 25  1  0
 23 26  1  0
 25 26  1  0
M  END
$$$$
33
     RDKit          3D

 26 28  0  0  0  0  0  0  0  0999 V2000
   21.0172    0.6204   11.3140 N   0  0  0  0  0  0  0  0  0  0  0  0
   19.8916    0.1815   10.8187 C   0  0  1  0  0  0  0  0  0  0  0  0
   18.7336    0.8365   11.2625 C   0  0  2  0  0  0  0  0  0  0  0  0
   17.8982    1.2438   10.2421 N   0  0  0  0  0  0  0  0  0  0  0  0
   16.6953    1.7787   10.5910 O   0  0  0  0  0  0  0  0  0  0  0  0
   19.8226   -0.7230    9.7628 C   0  0  2  0  0  0  0  0  0  0  0  0
   20.8749   -1.4329    9.3267 O   0  0  0  0  0  0  0  0  0  0  0  0
   17.6264    0.2171    9.2423 C   0  0  1  0  0  0  0  0  0  0  0  0
   18.5488    1.3319   12.5398 O   0  0  0  0  0  0  0  0  0  0  0  0
   18.8569   -0.4520    8.7990 C   0  0  2  0  0  0  0  0  0  0  0  0
   18.8504   -0.9929    7.5367 O   0  0  0  0  0  0  0  0  0  0  0  0
   18.1763    0.5120   13.5739 C   0  0  2  0  0  0  0  0  0  0  0  0
   18.9783   -0.2371   14.3271 C   0  0  0  0  0  0  0  0  0  0  0  0
   18.3707   -0.7593   15.4250 C   0  0  1  0  0  0  0  0  0  0  0  0
   16.7222   -0.8176    9.7626 O   0  0  0  0  0  0  0  0  0  0  0  0
   19.1615   -1.5474   16.4846 C   0  0  0  0  0  0  0  0  0  0  0  0
   18.4943   -1.9414   17.6233 C   0  0  0  0  0  0  0  0  0  0  0  0
   17.2495   -0.5101   15.7147 C   0  0  2  0  0  0  0  0  0  0  0  0
   16.7949    0.3666   13.8649 C   0  0  0  0  0  0  0  0  0  0  0  0
   17.2476   -1.6052   17.9697 C   0  0  0  0  0  0  0  0  0  0  0  0
   17.9253   -1.8079    6.8598 C   0  0  0  0  0  0  0  0  0  0  0  0
   16.3356    0.1622   15.0581 C   0  0  0  0  0  0  0  0  0  0  0  0
   16.6638   -0.8324   17.0933 C   0  0  0  0  0  0  0  0  0  0  0  0
   17.3875   -1.0481    5.7333 C   0  0  0  0  0  0  0  0  0  0  0  0
   18.3579   -0.3032    4.9971 O   0  0  0  0  0  0  0  0  0  0  0  0
   18.4639    1.1698    5.0482 C   0  0  0  0  0  0  0  0  0  0  0  0
  2  1  1  6
  2  3  1  0
  3  4  1  0
  4  5  1  0
  2  6  1  0
  6  7  1  6
  4  8  1  0
  3  9  1  6
  6 10  1  0
  8 10  1  0
 10 11  1  1
 12  9  1  6
 12 13  1  0
 14 13  1  1
  8 15  1  1
 14 16  1  0
 16 17  1  0
 14 18  1  0
 12 19  1  0
 17 20  1  0
 11 21  1  0
 18 22  1  1
 19 22  1  0
 18 23  1  0
 20 23  1  0
 21 24  1  0
 24 25  1  0
 25 26  1  0
M  END
$$$$
34
     RDKit          3D

 26 31  0  0  0  0  0  0  0  0999 V2000
   18.7669   -2.0629   15.8816 C   0  0  0  0  0  0  0  0  0  0  0  0
   18.2939   -1.4542   16.9168 C   0  0  0  0  0  0  0  0  0  0  0  0
   18.5140   -1.4731   14.6004 C   0  0  2  0  0  0  0  0  0  0  0  0
   18.9159   -1.9595   13.4056 C   0  0  0  0  0  0  0  0  0  0  0  0
   18.0068   -0.1594   14.8235 C   0  0  0  0  0  0  0  0  0  0  0  0
   17.7593    0.6187   13.5942 C   0  0  0  0  0  0  0  0  0  0  0  0
   18.6507   -1.1781   12.2583 C   0  0  2  0  0  0  0  0  0  0  0  0
   17.6155    0.6310   15.9694 C   0  0  0  0  0  0  0  0  0  0  0  0
   17.9199   -0.1899   17.1646 C   0  0  0  0  0  0  0  0  0  0  0  0
   18.9853   -1.6649   10.9655 N   0  0  0  0  0  0  0  0  0  0  0  0
   17.0984    1.8218   13.6510 O   0  0  0  0  0  0  0  0  0  0  0  0
   19.4803   -2.8034   10.7367 C   0  0  0  0  0  0  0  0  0  0  0  0
   17.8788    2.8401   13.1992 C   0  0  0  0  0  0  0  0  0  0  0  0
   17.8292    2.9406   11.7625 C   0  0  1  0  0  0  0  0  0  0  0  0
   19.8376   -3.1240    9.3852 N   0  0  0  0  0  0  0  0  0  0  0  0
   18.1732    4.1365   11.1458 C   0  0  2  0  0  0  0  0  0  0  0  0
   17.5508    1.7980   10.9662 C   0  0  1  0  0  0  0  0  0  0  0  0
   18.8773   -0.7567    9.7824 C   0  0  1  0  0  0  0  0  0  0  0  0
   18.1368    0.1732   12.3422 C   0  0  1  0  0  0  0  0  0  0  0  0
   18.2936    5.2018   11.8592 O   0  0  0  0  0  0  0  0  0  0  0  0
   17.1652    2.1447    9.6937 O   0  0  0  0  0  0  0  0  0  0  0  0
   18.1020    3.0060    9.2232 C   0  0  0  0  0  0  0  0  0  0  0  0
   18.3031    4.1816    9.7771 C   0  0  0  0  0  0  0  0  0  0  0  0
   19.2437   -1.7498    8.7665 C   0  0  0  0  0  0  0  0  0  0  0  0
   17.7757    0.6610   11.1007 N   0  0  0  0  0  0  0  0  0  0  0  0
   18.1227    0.1618    9.9148 C   0  0  0  0  0  0  0  0  0  0  0  0
  1  2  1  0
  3  1  1  1
  3  4  1  0
  3  5  1  0
  5  6  1  0
  7  4  1  1
  5  8  1  0
  2  9  1  0
  8  9  1  0
  7 10  1  0
  6 11  1  0
 10 12  1  0
 11 13  1  0
 14 13  1  1
 12 15  1  0
 14 16  1  0
 14 17  1  0
 10 18  1  0
 19  6  1  1
  7 19  1  0
 16 20  1  6
 17 21  1  6
 21 22  1  0
 16 23  1  0
 22 23  1  0
 15 24  1  0
 18 24  1  6
 17 25  1  0
 19 25  1  0
 18 26  1  0
 25 26  1  0
M  END
$$$$
35
     RDKit          3D

 26 26  0  0  0  0  0  0  0  0999 V2000
   20.9473   -0.5832    9.7543 O   0  0  0  0  0  0  0  0  0  0  0  0
   19.9558   -0.0466   10.3857 C   0  0  1  0  0  0  0  0  0  0  0  0
   18.6293   -0.5249    9.9103 C   0  0  2  0  0  0  0  0  0  0  0  0
   20.2478    0.7691   11.4773 C   0  0  1  0  0  0  0  0  0  0  0  0
   18.5907   -1.4073    8.7707 C   0  0  0  0  0  0  0  0  0  0  0  0
   21.3623    1.2743   11.6910 O   0  0  0  0  0  0  0  0  0  0  0  0
   17.8765    0.8133    9.9096 O   0  0  0  0  0  0  0  0  0  0  0  0
   17.4167   -1.1324    8.1505 O   0  0  0  0  0  0  0  0  0  0  0  0
   17.2615   -0.6379    6.9539 C   0  0  0  0  0  0  0  0  0  0  0  0
   19.1331    1.6400   12.0004 C   0  0  1  0  0  0  0  0  0  0  0  0
   18.0363    1.8013   10.9739 C   0  0  1  0  0  0  0  0  0  0  0  0
   18.5402   -0.5188    6.2035 C   0  0  0  0  0  0  0  0  0  0  0  0
   18.4174    0.2527    4.9213 C   0  0  0  0  0  0  0  0  0  0  0  0
   18.1192   -0.3160    3.8987 O   0  0  0  0  0  0  0  0  0  0  0  0
   18.6780    1.5861    4.8851 N   0  0  0  0  0  0  0  0  0  0  0  0
   17.8576    3.0213   10.2693 C   0  0  0  0  0  0  0  0  0  0  0  0
   18.3165    1.2591   13.0577 O   0  0  0  0  0  0  0  0  0  0  0  0
   18.8206    3.4569    9.6436 O   0  0  0  0  0  0  0  0  0  0  0  0
   17.7866    2.0710   13.9292 C   0  0  2  0  0  0  0  0  0  0  0  0
   18.1782    3.3228   14.1148 C   0  0  0  0  0  0  0  0  0  0  0  0
   16.9454    1.3277   14.8483 N   0  0  0  0  0  0  0  0  0  0  0  0
   18.8091    3.4523   15.2566 O   0  0  0  0  0  0  0  0  0  0  0  0
   17.4268    0.1348   15.3813 C   0  0  0  0  0  0  0  0  0  0  0  0
   18.6308    0.0378   15.8885 O   0  0  0  0  0  0  0  0  0  0  0  0
   18.9975   -1.2176   16.4748 C   0  0  0  0  0  0  0  0  0  0  0  0
   16.5877   -0.8599   15.3948 O   0  0  0  0  0  0  0  0  0  0  0  0
  2  1  1  1
  2  3  1  0
  2  4  1  0
  3  5  1  6
  4  6  1  6
  3  7  1  0
  5  8  1  0
  8  9  1  0
  4 10  1  0
  7 11  1  0
 10 11  1  0
  9 12  1  0
 12 13  1  0
 13 14  2  0
 13 15  1  0
 11 16  1  6
 10 17  1  1
 16 18  1  0
 17 19  1  0
 19 20  1  1
 19 21  1  0
 20 22  1  0
 21 23  1  0
 23 24  1  0
 24 25  1  0
 23 26  2  0
M  END
$$$$
36
     RDKit          3D

 27 33  0  0  0  0  0  0  0  0999 V2000
   19.0881   -2.2270   16.7779 C   0  0  0  0  0  0  0  0  0  0  0  0
   18.6073   -1.2451   17.5844 C   0  0  0  0  0  0  0  0  0  0  0  0
   18.7304   -2.1944   15.4059 C   0  0  0  0  0  0  0  0  0  0  0  0
   18.1157   -1.0523   14.8506 C   0  0  0  0  0  0  0  0  0  0  0  0
   17.6583   -0.0433   15.7466 C   0  0  0  0  0  0  0  0  0  0  0  0
   17.9022   -0.1024   17.0757 C   0  0  0  0  0  0  0  0  0  0  0  0
   16.8987    1.1095   15.1936 C   0  0  0  0  0  0  0  0  0  0  0  0
   17.8530    2.1349   14.7188 N   0  0  0  0  0  0  0  0  0  0  0  0
   17.7460    2.6234   13.5988 C   0  0  2  0  0  0  0  0  0  0  0  0
   18.0420    1.9745   12.5412 N   0  0  0  0  0  0  0  0  0  0  0  0
   17.5331    4.0088   13.5231 N   0  0  0  0  0  0  0  0  0  0  0  0
   17.9411    2.7715   11.3630 C   0  0  0  0  0  0  0  0  0  0  0  0
   18.1614    0.5280   12.1836 C   0  0  1  0  0  0  0  0  0  0  0  0
   17.7048    4.1403   12.0268 C   0  0  1  0  0  0  0  0  0  0  0  0
   17.4762    5.5259   11.4056 C   0  0  0  0  0  0  0  0  0  0  0  0
   17.4526    5.3634    9.9757 C   0  0  0  0  0  0  0  0  0  0  0  0
   17.7668    4.1091    9.2726 C   0  0  0  0  0  0  0  0  0  0  0  0
   17.9664    2.9562    9.9887 C   0  0  0  0  0  0  0  0  0  0  0  0
   18.2611    1.6795    9.2242 C   0  0  2  0  0  0  0  0  0  0  0  0
   18.6644    0.4775    9.9830 N   0  0  0  0  0  0  0  0  0  0  0  0
   19.2959   -0.4666    9.1831 C   0  0  0  0  0  0  0  0  0  0  0  0
   19.7523   -1.6096    9.9063 C   0  0  0  0  0  0  0  0  0  0  0  0
   18.6528    0.0822   11.0492 N   0  0  0  0  0  0  0  0  0  0  0  0
   17.9404   -0.8756   13.3930 S   0  0  0  0  0  0  0  0  0  0  0  0
   19.2202   -1.1019   11.2520 C   0  0  0  0  0  0  0  0  0  0  0  0
   18.4606    1.3601    7.8734 C   0  0  0  0  0  0  0  0  0  0  0  0
   19.3311   -0.1000    7.7425 C   0  0  0  0  0  0  0  0  0  0  0  0
  1  2  1  0
  1  3  1  0
  3  4  1  0
  4  5  1  0
  2  6  1  0
  5  6  1  0
  5  7  1  0
  7  8  1  0
  9  8  1  1
  9 10  1  0
  9 11  1  0
 10 12  1  0
 10 13  1  0
 11 14  1  0
 12 14  1  0
 14 15  1  6
 15 16  1  0
 16 17  1  0
 12 18  1  0
 17 18  1  0
 18 19  1  0
 19 20  1  0
 20 21  1  0
 21 22  1  0
 13 23  1  0
 20 23  1  0
  4 24  1  0
 13 24  1  1
 22 25  1  0
 23 25  1  0
 19 26  1  6
 21 27  1  0
 26 27  1  0
M  END
$$$$
37
     RDKit          3D

 27 27  0  0  0  0  0  0  0  0999 V2000
   17.9618    0.0112   18.4162 C   0  0  0  0  0  0  0  0  0  0  0  0
   17.4745    0.8812   17.4553 C   0  0  1  0  0  0  0  0  0  0  0  0
   17.3103    2.2036   17.7683 C   0  0  0  0  0  0  0  0  0  0  0  0
   18.1031   -1.3449   17.9141 C   0  0  0  0  0  0  0  0  0  0  0  0
   17.7712    0.4668   16.1194 C   0  0  1  0  0  0  0  0  0  0  0  0
   18.3063   -1.7116   16.7103 C   0  0  0  0  0  0  0  0  0  0  0  0
   18.1189   -0.7993   15.6886 C   0  0  0  0  0  0  0  0  0  0  0  0
   18.4087    3.0673   18.0077 C   0  0  0  0  0  0  0  0  0  0  0  0
   17.4415    1.5836   14.9861 C   0  0  0  0  0  0  0  0  0  0  0  0
   17.8992    4.3034   18.1441 O   0  0  0  0  0  0  0  0  0  0  0  0
   18.3803    1.6014   13.8997 N   0  0  0  0  0  0  0  0  0  0  0  0
   17.9901    0.9708   12.7334 C   0  0  0  0  0  0  0  0  0  0  0  0
   18.6340    1.2626   11.5572 C   0  0  2  0  0  0  0  0  0  0  0  0
   17.8071    1.6810   10.5106 C   0  0  2  0  0  0  0  0  0  0  0  0
   16.9740    0.1959   13.0921 O   0  0  0  0  0  0  0  0  0  0  0  0
   17.4120    2.9677   10.5802 C   0  0  0  0  0  0  0  0  0  0  0  0
   16.6640    0.6803   10.2414 O   0  0  0  0  0  0  0  0  0  0  0  0
   18.2367    4.0206   10.8242 C   0  0  1  0  0  0  0  0  0  0  0  0
   16.9585   -0.0666    9.1355 C   0  0  0  0  0  0  0  0  0  0  0  0
   19.6074    0.1356   11.2329 C   0  0  0  0  0  0  0  0  0  0  0  0
   19.7050   -1.0000   11.8863 O   0  0  0  0  0  0  0  0  0  0  0  0
   20.2705    0.3917   10.0743 C   0  0  0  0  0  0  0  0  0  0  0  0
   20.7341   -0.7561    9.3166 N   0  0  0  0  0  0  0  0  0  0  0  0
   17.7029    5.4179   10.9245 C   0  0  0  0  0  0  0  0  0  0  0  0
   19.6513    3.9389   11.1028 C   0  0  0  0  0  0  0  0  0  0  0  0
   16.8433    5.7732    9.9335 O   0  0  0  0  0  0  0  0  0  0  0  0
   18.0659    6.2076   11.8280 O   0  0  0  0  0  0  0  0  0  0  0  0
  1  2  1  0
  2  3  1  1
  1  4  1  0
  2  5  1  0
  4  6  1  0
  5  7  1  0
  6  7  1  0
  3  8  1  0
  5  9  1  6
  8 10  1  0
  9 11  1  0
 11 12  1  0
 13 12  1  1
 13 14  1  0
 12 15  2  0
 14 16  1  1
 14 17  1  0
 16 18  1  0
 17 19  1  0
 13 20  1  0
 20 21  1  0
 20 22  2  3
 22 23  1  0
 18 24  1  0
 18 25  1  1
 24 26  2  0
 24 27  1  0
M  END
$$$$
38
     RDKit          3D

 27 30  0  0  0  0  0  0  0  0999 V2000
   15.7884   -0.0453   10.1143 O   0  0  0  0  0  0  0  0  0  0  0  0
   16.9722   -0.0787    9.8939 C   0  0  0  0  0  0  0  0  0  0  0  0
   17.3892   -0.8401    8.8905 N   0  0  0  0  0  0  0  0  0  0  0  0
   17.8323    0.4844   10.8253 N   0  0  0  0  0  0  0  0  0  0  0  0
   18.7923   -0.8422    8.5275 C   0  0  1  0  0  0  0  0  0  0  0  0
   16.6946   -1.3568    7.5876 C   0  0  0  0  0  0  0  0  0  0  0  0
   17.1659   -0.7488    6.4247 C   0  0  1  0  0  0  0  0  0  0  0  0
   17.3447    1.0249   12.0818 C   0  0  0  0  0  0  0  0  0  0  0  0
   18.5562   -0.9239    6.1950 C   0  0  2  0  0  0  0  0  0  0  0  0
   19.3639   -0.5890    7.2636 O   0  0  0  0  0  0  0  0  0  0  0  0
   16.4378   -1.3788    5.2167 O   0  0  0  0  0  0  0  0  0  0  0  0
   17.6168    0.3584   13.1511 C   0  0  1  0  0  0  0  0  0  0  0  0
   19.3188    0.8304   10.2886 C   0  0  2  0  0  0  0  0  0  0  0  0
   18.6997   -0.6062   13.2646 C   0  0  1  0  0  0  0  0  0  0  0  0
   19.7751   -0.3015    9.5436 C   0  0  0  0  0  0  0  0  0  0  0  0
   20.1195    1.2522   11.4556 C   0  0  0  0  0  0  0  0  0  0  0  0
   17.6353    1.2044   14.4439 C   0  0  2  0  0  0  0  0  0  0  0  0
   20.5945    0.1498   12.2562 N   0  0  0  0  0  0  0  0  0  0  0  0
   18.8553   -0.1544    4.9504 C   0  0  0  0  0  0  0  0  0  0  0  0
   18.8893    1.8841   14.4856 O   0  0  0  0  0  0  0  0  0  0  0  0
   19.9494   -0.2082   13.2248 N   0  0  0  0  0  0  0  0  0  0  0  0
   17.8333    0.4703   15.8128 C   0  0  1  0  0  0  0  0  0  0  0  0
   17.3840    1.2609   16.8819 O   0  0  0  0  0  0  0  0  0  0  0  0
   18.5441   -1.8982   13.9154 C   0  0  0  0  0  0  0  0  0  0  0  0
   17.5739   -0.9937   15.9347 C   0  0  0  0  0  0  0  0  0  0  0  0
   18.0774    1.0804    5.1138 O   0  0  0  0  0  0  0  0  0  0  0  0
   18.4678   -1.9383   15.3994 C   0  0  0  0  0  0  0  0  0  0  0  0
  1  2  2  0
  2  3  1  0
  2  4  1  0
  3  5  1  0
  3  6  1  0
  6  7  1  0
  4  8  1  0
  7  9  1  0
  5 10  1  0
  9 10  1  0
  7 11  1  6
 12  8  1  6
  4 13  1  0
 12 14  1  0
  5 15  1  1
 13 15  1  1
 13 16  1  0
 12 17  1  0
 16 18  1  0
  9 19  1  6
 17 20  1  6
 14 21  1  0
 18 21  1  0
 17 22  1  0
 22 23  1  1
 14 24  1  1
 22 25  1  0
 19 26  1  0
 24 27  1  0
 25 27  1  0
M  END
$$$$
39
     RDKit          3D

 27 29  0  0  0  0  0  0  0  0999 V2000
   21.0172    0.6204   11.3140 N   0  0  0  0  0  0  0  0  0  0  0  0
   19.8916    0.1815   10.8187 C   0  0  1  0  0  0  0  0  0  0  0  0
   18.7336    0.8365   11.2625 C   0  0  2  0  0  0  0  0  0  0  0  0
   17.8982    1.2438   10.2421 N   0  0  0  0  0  0  0  0  0  0  0  0
   16.6953    1.7787   10.5910 O   0  0  0  0  0  0  0  0  0  0  0  0
   19.8226   -0.7230    9.7628 C   0  0  2  0  0  0  0  0  0  0  0  0
   20.8749   -1.4329    9.3267 O   0  0  0  0  0  0  0  0  0  0  0  0
   17.6264    0.2171    9.2423 C   0  0  1  0  0  0  0  0  0  0  0  0
   18.5488    1.3319   12.5398 O   0  0  0  0  0  0  0  0  0  0  0  0
   18.8569   -0.4520    8.7990 C   0  0  2  0  0  0  0  0  0  0  0  0
   18.8504   -0.9929    7.5367 O   0  0  0  0  0  0  0  0  0  0  0  0
   18.1763    0.5120   13.5739 C   0  0  1  0  0  0  0  0  0  0  0  0
   18.9783   -0.2371   14.3271 C   0  0  0  0  0  0  0  0  0  0  0  0
   18.3707   -0.7593   15.4250 C   0  0  1  0  0  0  0  0  0  0  0  0
   16.7222   -0.8176    9.7626 O   0  0  0  0  0  0  0  0  0  0  0  0
   19.1615   -1.5474   16.4846 C   0  0  0  0  0  0  0  0  0  0  0  0
   18.4943   -1.9414   17.6233 C   0  0  0  0  0  0  0  0  0  0  0  0
   17.2495   -0.5101   15.7147 C   0  0  2  0  0  0  0  0  0  0  0  0
   16.8083    0.7473   13.9360 C   0  0  0  0  0  0  0  0  0  0  0  0
   17.2366   -1.6111   17.9591 C   0  0  0  0  0  0  0  0  0  0  0  0
   16.3440    0.2469   15.0346 C   0  0  0  0  0  0  0  0  0  0  0  0
   16.4993   -0.8200   16.9916 C   0  0  0  0  0  0  0  0  0  0  0  0
   17.9649   -0.9065    6.4005 C   0  0  0  0  0  0  0  0  0  0  0  0
   18.1467    0.2793    5.6079 C   0  0  0  0  0  0  0  0  0  0  0  0
   18.0052   -2.1587    5.6187 C   0  0  0  0  0  0  0  0  0  0  0  0
   19.2717   -2.1916    4.9361 O   0  0  0  0  0  0  0  0  0  0  0  0
   18.4106    1.4696    6.1967 O   0  0  0  0  0  0  0  0  0  0  0  0
  2  1  1  6
  2  3  1  0
  3  4  1  0
  4  5  1  0
  2  6  1  0
  6  7  1  6
  4  8  1  0
  3  9  1  6
  6 10  1  0
  8 10  1  0
 10 11  1  1
 12  9  1  1
 12 13  1  0
 14 13  1  1
  8 15  1  1
 14 16  1  0
 16 17  1  0
 14 18  1  0
 12 19  1  0
 17 20  1  0
 18 21  1  1
 19 21  1  0
 18 22  1  0
 20 22  1  0
 11 23  1  0
 23 24  1  0
 23 25  1  0
 25 26  1  0
 24 27  1  0
M  END
$$$$
4
     RDKit          3D

 11 11  0  0  0  0  0  0  0  0999 V2000
   17.9618    0.0112   18.4162 C   0  0  0  0  0  0  0  0  0  0  0  0
   17.4745    0.8812   17.4553 C   0  0  1  0  0  0  0  0  0  0  0  0
   17.3103    2.2036   17.7683 C   0  0  0  0  0  0  0  0  0  0  0  0
   17.2883    0.5319   16.0841 C   0  0  0  0  0  0  0  0  0  0  0  0
   18.2256   -1.3142   18.0132 C   0  0  2  0  0  0  0  0  0  0  0  0
   18.3846    3.0662   17.6642 N   0  0  0  0  0  0  0  0  0  0  0  0
   18.6941   -2.2404   18.9512 F   0  0  0  0  0  0  0  0  0  0  0  0
   16.5283    2.6044   18.8660 O   0  0  0  0  0  0  0  0  0  0  0  0
   18.2258   -1.7065   16.6492 C   0  0  0  0  0  0  0  0  0  0  0  0
   17.7338   -0.8028   15.6974 C   0  0  0  0  0  0  0  0  0  0  0  0
   19.3123    2.9234   16.6970 O   0  0  0  0  0  0  0  0  0  0  0  0
  1  2  1  0
  2  3  1  6
  2  4  1  0
  1  5  1  0
  3  6  1  0
  5  7  1  6
  3  8  2  0
  5  9  1  0
  4 10  1  0
  9 10  1  0
  6 11  1  0
M  END
$$$$
40
     RDKit          3D

 27 31  0  0  0  0  0  0  0  0999 V2000
   18.1202    1.3032   17.9985 C   0  0  0  0  0  0  0  0  0  0  0  0
   18.3012    0.0350   17.9524 C   0  0  0  0  0  0  0  0  0  0  0  0
   18.0451   -0.6737   16.8169 C   0  0  0  0  0  0  0  0  0  0  0  0
   17.4938    0.0636   15.6356 C   0  0  1  0  0  0  0  0  0  0  0  0
   17.3187    1.4386   15.7176 C   0  0  2  0  0  0  0  0  0  0  0  0
   17.0110    2.1701   14.5810 N   0  0  0  0  0  0  0  0  0  0  0  0
   17.6958    2.0908   16.8503 C   0  0  0  0  0  0  0  0  0  0  0  0
   17.4647    1.6687   13.3009 C   0  0  1  0  0  0  0  0  0  0  0  0
   17.4689    2.4267   12.2470 N   0  0  0  0  0  0  0  0  0  0  0  0
   17.7220    1.8393   10.9972 C   0  0  1  0  0  0  0  0  0  0  0  0
   18.0437    0.4882   13.1763 C   0  0  2  0  0  0  0  0  0  0  0  0
   18.2499    0.4507   11.5839 C   0  0  2  0  0  0  0  0  0  0  0  0
   17.8956   -0.4997   14.2660 C   0  0  0  0  0  0  0  0  0  0  0  0
   17.0861    3.9232   12.0639 C   0  0  0  0  0  0  0  0  0  0  0  0
   18.3469    4.7075   12.0574 C   0  0  0  0  0  0  0  0  0  0  0  0
   18.3872    5.6068   13.0027 C   0  0  0  0  0  0  0  0  0  0  0  0
   19.0424    4.7765   10.9195 C   0  0  0  0  0  0  0  0  0  0  0  0
   19.5971    6.4160   13.0813 C   0  0  0  0  0  0  0  0  0  0  0  0
   16.7799    1.8952   10.1216 O   0  0  0  0  0  0  0  0  0  0  0  0
   17.1359    0.8300    9.1304 C   0  0  0  0  0  0  0  0  0  0  0  0
   20.4383    6.3567   11.9435 C   0  0  0  0  0  0  0  0  0  0  0  0
   18.9407   -0.3686   10.6689 C   0  0  1  0  0  0  0  0  0  0  0  0
   17.6494   -0.3748    9.5309 C   0  0  1  0  0  0  0  0  0  0  0  0
   20.1792    5.4210   10.9163 C   0  0  0  0  0  0  0  0  0  0  0  0
   16.5960   -1.3745   10.0657 O   0  0  0  0  0  0  0  0  0  0  0  0
   20.0707   -0.3013   10.3918 C   0  0  0  0  0  0  0  0  0  0  0  0
   20.6405   -1.2823    9.5550 O   0  0  0  0  0  0  0  0  0  0  0  0
  1  2  1  0
  2  3  1  0
  4  3  1  1
  4  5  1  0
  5  6  1  0
  1  7  1  0
  5  7  1  6
  8  6  1  1
  8  9  1  0
  9 10  1  0
  8 11  1  0
 12 10  1  1
 11 12  1  0
  4 13  1  0
 11 13  1  6
  9 14  1  0
 14 15  1  0
 15 16  1  0
 15 17  1  0
 16 18  1  0
 10 19  1  6
 19 20  1  0
 18 21  1  0
 12 22  1  0
 20 23  1  0
 22 23  1  0
 17 24  1  0
 21 24  1  0
 23 25  1  1
 22 26  1  6
 26 27  1  0
M  END
$$$$
41
     RDKit          3D

 27 28  0  0  0  0  0  0  0  0999 V2000
   20.9473   -0.5832    9.7543 O   0  0  0  0  0  0  0  0  0  0  0  0
   19.9558   -0.0466   10.3857 C   0  0  1  0  0  0  0  0  0  0  0  0
   18.6293   -0.5249    9.9103 C   0  0  2  0  0  0  0  0  0  0  0  0
   20.2478    0.7691   11.4773 C   0  0  1  0  0  0  0  0  0  0  0  0
   18.5907   -1.4073    8.7707 C   0  0  0  0  0  0  0  0  0  0  0  0
   21.3623    1.2743   11.6910 O   0  0  0  0  0  0  0  0  0  0  0  0
   17.8765    0.8133    9.9096 O   0  0  0  0  0  0  0  0  0  0  0  0
   17.4167   -1.1324    8.1505 O   0  0  0  0  0  0  0  0  0  0  0  0
   17.2615   -0.6379    6.9539 C   0  0  0  0  0  0  0  0  0  0  0  0
   19.1331    1.6400   12.0004 C   0  0  1  0  0  0  0  0  0  0  0  0
   18.0363    1.8013   10.9739 C   0  0  1  0  0  0  0  0  0  0  0  0
   18.5402   -0.5188    6.2035 C   0  0  0  0  0  0  0  0  0  0  0  0
   18.4174    0.2527    4.9213 C   0  0  0  0  0  0  0  0  0  0  0  0
   18.1192   -0.3160    3.8987 O   0  0  0  0  0  0  0  0  0  0  0  0
   18.6780    1.5861    4.8851 N   0  0  0  0  0  0  0  0  0  0  0  0
   17.8576    3.0213   10.2693 C   0  0  0  0  0  0  0  0  0  0  0  0
   18.3165    1.2591   13.0577 O   0  0  0  0  0  0  0  0  0  0  0  0
   18.8206    3.4569    9.6436 O   0  0  0  0  0  0  0  0  0  0  0  0
   17.7866    2.0710   13.9292 C   0  0  2  0  0  0  0  0  0  0  0  0
   18.1782    3.3228   14.1148 C   0  0  0  0  0  0  0  0  0  0  0  0
   16.9454    1.3277   14.8483 N   0  0  0  0  0  0  0  0  0  0  0  0
   18.8091    3.4523   15.2566 O   0  0  0  0  0  0  0  0  0  0  0  0
   17.4268    0.1348   15.3813 C   0  0  1  0  0  0  0  0  0  0  0  0
   18.6308    0.0378   15.8885 O   0  0  0  0  0  0  0  0  0  0  0  0
   16.4607   -0.7665   16.2111 C   0  0  0  0  0  0  0  0  0  0  0  0
   18.9179   -1.2798   16.3192 C   0  0  0  0  0  0  0  0  0  0  0  0
   17.4826   -1.7489   16.8301 C   0  0  0  0  0  0  0  0  0  0  0  0
  2  1  1  1
  2  3  1  0
  2  4  1  0
  3  5  1  6
  4  6  1  6
  3  7  1  0
  5  8  1  0
  8  9  1  0
  4 10  1  0
  7 11  1  0
 10 11  1  0
  9 12  1  0
 12 13  1  0
 13 14  2  0
 13 15  1  0
 11 16  1  6
 10 17  1  1
 16 18  1  0
 17 19  1  0
 19 20  1  1
 19 21  1  0
 20 22  1  0
 23 21  1  1
 23 24  1  0
 23 25  1  0
 24 26  1  0
 25 27  1  0
 26 27  1  0
M  END
$$$$
42
     RDKit          3D

 27 32  0  0  0  0  0  0  0  0999 V2000
   18.7669   -2.0629   15.8816 C   0  0  0  0  0  0  0  0  0  0  0  0
   18.2939   -1.4542   16.9168 C   0  0  0  0  0  0  0  0  0  0  0  0
   18.5140   -1.4731   14.6004 C   0  0  2  0  0  0  0  0  0  0  0  0
   18.9159   -1.9595   13.4056 C   0  0  0  0  0  0  0  0  0  0  0  0
   18.0068   -0.1594   14.8235 C   0  0  0  0  0  0  0  0  0  0  0  0
   17.7593    0.6187   13.5942 C   0  0  2  0  0  0  0  0  0  0  0  0
   18.6507   -1.1781   12.2583 C   0  0  1  0  0  0  0  0  0  0  0  0
   17.6155    0.6310   15.9694 C   0  0  0  0  0  0  0  0  0  0  0  0
   17.9199   -0.1899   17.1646 C   0  0  0  0  0  0  0  0  0  0  0  0
   18.9853   -1.6649   10.9655 N   0  0  0  0  0  0  0  0  0  0  0  0
   17.0984    1.8218   13.6510 O   0  0  0  0  0  0  0  0  0  0  0  0
   19.4803   -2.8034   10.7367 C   0  0  0  0  0  0  0  0  0  0  0  0
   17.8788    2.8401   13.1992 C   0  0  0  0  0  0  0  0  0  0  0  0
   17.8292    2.9406   11.7625 C   0  0  1  0  0  0  0  0  0  0  0  0
   18.0257    4.1555   11.1356 C   0  0  0  0  0  0  0  0  0  0  0  0
   18.0794    4.2051    9.7078 C   0  0  0  0  0  0  0  0  0  0  0  0
   19.2606   -0.9028    9.7784 C   0  0  1  0  0  0  0  0  0  0  0  0
   17.1628    5.2151   11.6884 C   0  0  0  0  0  0  0  0  0  0  0  0
   17.7934    1.6713   10.9739 C   0  0  1  0  0  0  0  0  0  0  0  0
   19.2439   -1.4541    8.6324 N   0  0  0  0  0  0  0  0  0  0  0  0
   19.3913   -2.9337    9.1948 C   0  0  0  0  0  0  0  0  0  0  0  0
   19.0951   -1.0936    7.3891 C   0  0  0  0  0  0  0  0  0  0  0  0
   17.7880    1.4011    9.8268 O   0  0  0  0  0  0  0  0  0  0  0  0
   18.2296    0.2942    9.2864 C   0  0  2  0  0  0  0  0  0  0  0  0
   17.9817    0.0562   12.2605 C   0  0  2  0  0  0  0  0  0  0  0  0
   17.1616   -0.4379    8.6775 O   0  0  0  0  0  0  0  0  0  0  0  0
   17.4211   -1.0836    7.5250 C   0  0  0  0  0  0  0  0  0  0  0  0
  1  2  1  0
  3  1  1  1
  3  4  1  0
  3  5  1  0
  5  6  1  0
  7  4  1  6
  5  8  1  0
  2  9  1  0
  8  9  1  0
  7 10  1  0
  6 11  1  6
 10 12  1  0
 11 13  1  0
 13 14  1  0
 14 15  1  6
 15 16  1  0
 17 10  1  1
 15 18  1  0
 14 19  1  0
 17 20  1  0
 12 21  1  0
 20 21  1  0
 20 22  1  0
 19 23  1  6
 17 24  1  0
 24 23  1  1
 25  6  1  1
  7 25  1  0
 19 25  1  0
 24 26  1  0
 22 27  1  0
 26 27  1  0
M  END
$$$$
43
     RDKit          3D

 27 30  0  0  0  0  0  0  0  0999 V2000
   15.7884   -0.0453   10.1143 O   0  0  0  0  0  0  0  0  0  0  0  0
   16.9722   -0.0787    9.8939 C   0  0  0  0  0  0  0  0  0  0  0  0
   17.3892   -0.8401    8.8905 N   0  0  0  0  0  0  0  0  0  0  0  0
   17.8323    0.4844   10.8253 N   0  0  0  0  0  0  0  0  0  0  0  0
   18.7923   -0.8422    8.5275 C   0  0  1  0  0  0  0  0  0  0  0  0
   16.6946   -1.3568    7.5876 C   0  0  0  0  0  0  0  0  0  0  0  0
   17.1659   -0.7488    6.4247 C   0  0  1  0  0  0  0  0  0  0  0  0
   17.3447    1.0249   12.0818 C   0  0  0  0  0  0  0  0  0  0  0  0
   18.5562   -0.9239    6.1950 C   0  0  2  0  0  0  0  0  0  0  0  0
   19.3639   -0.5890    7.2636 O   0  0  0  0  0  0  0  0  0  0  0  0
   16.4378   -1.3788    5.2167 O   0  0  0  0  0  0  0  0  0  0  0  0
   17.6168    0.3584   13.1511 C   0  0  1  0  0  0  0  0  0  0  0  0
   19.3188    0.8304   10.2886 C   0  0  2  0  0  0  0  0  0  0  0  0
   18.6997   -0.6062   13.2646 C   0  0  1  0  0  0  0  0  0  0  0  0
   19.7751   -0.3015    9.5436 C   0  0  0  0  0  0  0  0  0  0  0  0
   20.1195    1.2522   11.4556 C   0  0  0  0  0  0  0  0  0  0  0  0
   17.6353    1.2044   14.4439 C   0  0  2  0  0  0  0  0  0  0  0  0
   20.5945    0.1498   12.2562 N   0  0  0  0  0  0  0  0  0  0  0  0
   18.8553   -0.1544    4.9504 C   0  0  0  0  0  0  0  0  0  0  0  0
   18.8893    1.8841   14.4856 O   0  0  0  0  0  0  0  0  0  0  0  0
   19.9494   -0.2082   13.2248 N   0  0  0  0  0  0  0  0  0  0  0  0
   17.8333    0.4703   15.8128 C   0  0  1  0  0  0  0  0  0  0  0  0
   17.3840    1.2609   16.8819 O   0  0  0  0  0  0  0  0  0  0  0  0
   18.0685    1.0804    5.1042 O   0  0  0  0  0  0  0  0  0  0  0  0
   18.1037   -0.8877   15.8377 C   0  0  1  0  0  0  0  0  0  0  0  0
   18.5539   -1.6432   14.4818 C   0  0  0  0  0  0  0  0  0  0  0  0
   18.0840   -1.6530   17.0123 C   0  0  0  0  0  0  0  0  0  0  0  0
  1  2  2  0
  2  3  1  0
  2  4  1  0
  3  5  1  0
  3  6  1  0
  6  7  1  0
  4  8  1  0
  7  9  1  0
  5 10  1  0
  9 10  1  0
  7 11  1  6
 12  8  1  6
  4 13  1  0
 12 14  1  0
  5 15  1  1
 13 15  1  1
 13 16  1  0
 12 17  1  0
 16 18  1  0
  9 19  1  6
 17 20  1  6
 14 21  1  0
 18 21  1  0
 17 22  1  0
 22 23  1  1
 19 24  1  0
 22 25  1  0
 14 26  1  1
 25 26  1  0
 25 27  1  1
M  END
$$$$
44
     RDKit          3D

 27 29  0  0  0  0  0  0  0  0999 V2000
   18.8315    2.1240    5.3008 C   0  0  0  0  0  0  0  0  0  0  0  0
   18.2779    1.1031    4.6629 C   0  0  0  0  0  0  0  0  0  0  0  0
   18.0804    0.0912    5.4678 C   0  0  1  0  0  0  0  0  0  0  0  0
   18.2893    0.1453    6.7162 C   0  0  0  0  0  0  0  0  0  0  0  0
   19.2196    3.3299    4.4944 F   0  0  0  0  0  0  0  0  0  0  0  0
   19.0918    2.2448    6.6731 C   0  0  0  0  0  0  0  0  0  0  0  0
   18.7079    1.1280    7.3584 C   0  0  2  0  0  0  0  0  0  0  0  0
   18.8741    1.0400    8.9098 C   0  0  2  0  0  0  0  0  0  0  0  0
   17.4471   -1.1435    4.7285 C   0  0  0  0  0  0  0  0  0  0  0  0
   19.2567   -0.1579    9.4349 C   0  0  2  0  0  0  0  0  0  0  0  0
   19.3520   -0.0913   10.8673 C   0  0  0  0  0  0  0  0  0  0  0  0
   17.9456   -2.3031    4.9669 N   0  0  0  0  0  0  0  0  0  0  0  0
   18.4698    2.2020    9.5333 C   0  0  0  0  0  0  0  0  0  0  0  0
   19.6780   -1.3666    8.8472 C   0  0  0  0  0  0  0  0  0  0  0  0
   18.9131    1.1066   11.5775 C   0  0  2  0  0  0  0  0  0  0  0  0
   20.1858   -2.2104    9.7229 N   0  0  0  0  0  0  0  0  0  0  0  0
   19.9530   -1.4446   11.1479 C   0  0  0  0  0  0  0  0  0  0  0  0
   18.0429    3.3999    9.0120 O   0  0  0  0  0  0  0  0  0  0  0  0
   18.5603    2.1602   10.9530 N   0  0  0  0  0  0  0  0  0  0  0  0
   19.0157    0.9920   13.0507 C   0  0  0  0  0  0  0  0  0  0  0  0
   17.8182    0.6570   13.6922 C   0  0  1  0  0  0  0  0  0  0  0  0
   17.9234    0.1420   15.0518 C   0  0  0  0  0  0  0  0  0  0  0  0
   16.8578    1.7296   13.7445 O   0  0  0  0  0  0  0  0  0  0  0  0
   17.4914    0.7583   16.0059 O   0  0  0  0  0  0  0  0  0  0  0  0
   18.2191   -1.1601   15.3192 N   0  0  0  0  0  0  0  0  0  0  0  0
   18.6876   -2.0733   14.4179 C   0  0  0  0  0  0  0  0  0  0  0  0
   17.8870   -1.5509   16.8084 C   0  0  0  0  0  0  0  0  0  0  0  0
  1  2  1  0
  2  3  1  0
  3  4  1  0
  1  5  1  0
  1  6  1  0
  7  4  1  6
  6  7  1  0
  7  8  1  0
  3  9  1  1
  8 10  1  0
 10 11  1  0
  9 12  2  0
  8 13  1  1
 10 14  1  6
 11 15  1  0
 14 16  1  0
 11 17  1  0
 16 17  1  0
 13 18  2  0
 13 19  1  0
 15 19  1  0
 15 20  1  1
 20 21  1  0
 21 22  1  0
 21 23  1  1
 22 24  2  0
 22 25  1  0
 25 26  1  0
 25 27  1  0
M  END
$$$$
45
     RDKit          3D

 27 30  0  0  0  0  0  0  0  0999 V2000
   20.8522    0.3905   10.7967 O   0  0  0  0  0  0  0  0  0  0  0  0
   19.8548   -0.3149   10.2966 C   0  0  2  0  0  0  0  0  0  0  0  0
   18.5933    0.3763   10.5953 C   0  0  1  0  0  0  0  0  0  0  0  0
   19.8129   -1.6972   10.9343 C   0  0  1  0  0  0  0  0  0  0  0  0
   18.5805    1.6560   10.0649 N   0  0  0  0  0  0  0  0  0  0  0  0
   17.9136    2.6817   10.8110 C   0  0  0  0  0  0  0  0  0  0  0  0
   18.4967   -1.7589   11.3653 C   0  0  2  0  0  0  0  0  0  0  0  0
   19.2919    2.2404    9.0332 C   0  0  0  0  0  0  0  0  0  0  0  0
   18.0200    3.9363   10.2891 C   0  0  2  0  0  0  0  0  0  0  0  0
   17.1479    2.4730   11.9901 O   0  0  0  0  0  0  0  0  0  0  0  0
   17.7735   -0.8647   10.4113 C   0  0  2  0  0  0  0  0  0  0  0  0
   18.2693   -1.4745   12.6883 O   0  0  0  0  0  0  0  0  0  0  0  0
   19.1843   -1.0026   13.5775 C   0  0  0  0  0  0  0  0  0  0  0  0
   18.5316    3.0102    8.2937 N   0  0  0  0  0  0  0  0  0  0  0  0
   17.2557    4.9888   11.2291 C   0  0  0  0  0  0  0  0  0  0  0  0
   17.1551   -1.1510    9.4398 O   0  0  0  0  0  0  0  0  0  0  0  0
   18.6551   -0.8045   14.9561 C   0  0  0  0  0  0  0  0  0  0  0  0
   17.2305    3.5270   12.8570 C   0  0  0  0  0  0  0  0  0  0  0  0
   18.3884    4.3486    9.1687 C   0  0  1  0  0  0  0  0  0  0  0  0
   18.6781   -1.9663   15.7430 C   0  0  0  0  0  0  0  0  0  0  0  0
   18.4229    5.5628    8.8344 N   0  0  0  0  0  0  0  0  0  0  0  0
   16.9443    4.7151   12.4132 C   0  0  0  0  0  0  0  0  0  0  0  0
   18.5403   -1.7900   17.0467 C   0  0  0  0  0  0  0  0  0  0  0  0
   20.2511   -2.5905    9.9060 O   0  0  0  0  0  0  0  0  0  0  0  0
   18.0599    0.3269   15.4358 C   0  0  0  0  0  0  0  0  0  0  0  0
   17.7846    0.4533   16.8064 C   0  0  0  0  0  0  0  0  0  0  0  0
   17.9669   -0.6178   17.6114 C   0  0  0  0  0  0  0  0  0  0  0  0
  2  1  1  1
  2  3  1  0
  2  4  1  0
  3  5  1  6
  5  6  1  0
  4  7  1  0
  5  8  1  0
  6  9  1  0
  6 10  1  0
  3 11  1  0
  7 11  1  0
  7 12  1  1
 12 13  1  0
  8 14  1  0
  9 15  1  6
 11 16  1  6
 13 17  1  0
 10 18  1  0
  9 19  1  0
 14 19  1  0
 17 20  1  0
 19 21  1  6
 15 22  1  0
 18 22  1  0
 20 23  1  0
  4 24  1  6
 17 25  1  0
 25 26  1  0
 23 27  1  0
 26 27  1  0
M  END
$$$$
46
     RDKit          3D

 27 31  0  0  0  0  0  0  0  0999 V2000
   18.7669   -2.0629   15.8816 C   0  0  0  0  0  0  0  0  0  0  0  0
   18.2939   -1.4542   16.9168 C   0  0  0  0  0  0  0  0  0  0  0  0
   18.5140   -1.4731   14.6004 C   0  0  2  0  0  0  0  0  0  0  0  0
   18.9159   -1.9595   13.4056 C   0  0  0  0  0  0  0  0  0  0  0  0
   18.0068   -0.1594   14.8235 C   0  0  0  0  0  0  0  0  0  0  0  0
   17.7593    0.6187   13.5942 C   0  0  0  0  0  0  0  0  0  0  0  0
   18.6507   -1.1781   12.2583 C   0  0  2  0  0  0  0  0  0  0  0  0
   17.6155    0.6310   15.9694 C   0  0  0  0  0  0  0  0  0  0  0  0
   17.9199   -0.1899   17.1646 C   0  0  0  0  0  0  0  0  0  0  0  0
   18.9853   -1.6649   10.9655 N   0  0  0  0  0  0  0  0  0  0  0  0
   17.0984    1.8218   13.6510 O   0  0  0  0  0  0  0  0  0  0  0  0
   19.4803   -2.8034   10.7367 C   0  0  0  0  0  0  0  0  0  0  0  0
   17.8788    2.8401   13.1992 C   0  0  2  0  0  0  0  0  0  0  0  0
   18.8695   -3.8643   10.9311 O   0  0  0  0  0  0  0  0  0  0  0  0
   18.4957   -0.7002    9.8775 C   0  0  1  0  0  0  0  0  0  0  0  0
   20.3728   -2.8347    9.5632 N   0  0  0  0  0  0  0  0  0  0  0  0
   19.2075   -0.5359    8.8789 C   0  0  2  0  0  0  0  0  0  0  0  0
   17.2085   -0.3248   10.1053 O   0  0  0  0  0  0  0  0  0  0  0  0
   17.0921    1.0535   10.2230 C   0  0  0  0  0  0  0  0  0  0  0  0
   18.1997    0.1557   12.2792 C   0  0  1  0  0  0  0  0  0  0  0  0
   19.9989   -1.8268    8.4966 C   0  0  0  0  0  0  0  0  0  0  0  0
   20.4122    0.3315    9.2189 C   0  0  0  0  0  0  0  0  0  0  0  0
   20.3914    0.9985   10.2570 O   0  0  0  0  0  0  0  0  0  0  0  0
   17.7056    1.2564   11.5346 N   0  0  0  0  0  0  0  0  0  0  0  0
   17.4058    4.1627   13.4596 C   0  0  0  0  0  0  0  0  0  0  0  0
   17.7872    2.5743   11.7080 C   0  0  0  0  0  0  0  0  0  0  0  0
   18.0480    4.7568   14.5642 O   0  0  0  0  0  0  0  0  0  0  0  0
  1  2  1  0
  3  1  1  1
  3  4  1  0
  3  5  1  0
  5  6  1  0
  7  4  1  1
  5  8  1  0
  2  9  1  0
  8  9  1  0
  7 10  1  0
  6 11  1  0
 10 12  1  0
 11 13  1  0
 12 14  2  0
 10 15  1  0
 12 16  1  0
 15 17  1  0
 15 18  1  6
 18 19  1  0
 20  6  1  1
  7 20  1  0
 16 21  1  0
 17 21  1  0
 17 22  1  1
 22 23  1  0
 19 24  1  0
 20 24  1  0
 13 25  1  6
 13 26  1  0
 24 26  1  0
 25 27  1  0
M  END
$$$$
47
     RDKit          3D

 28 31  0  0  0  0  0  0  0  0999 V2000
   15.7884   -0.0453   10.1143 O   0  0  0  0  0  0  0  0  0  0  0  0
   16.9722   -0.0787    9.8939 C   0  0  0  0  0  0  0  0  0  0  0  0
   17.3892   -0.8401    8.8905 N   0  0  0  0  0  0  0  0  0  0  0  0
   17.8323    0.4844   10.8253 N   0  0  0  0  0  0  0  0  0  0  0  0
   18.7923   -0.8422    8.5275 C   0  0  1  0  0  0  0  0  0  0  0  0
   16.6946   -1.3568    7.5876 C   0  0  0  0  0  0  0  0  0  0  0  0
   17.1659   -0.7488    6.4247 C   0  0  1  0  0  0  0  0  0  0  0  0
   17.3447    1.0249   12.0818 C   0  0  0  0  0  0  0  0  0  0  0  0
   18.5562   -0.9239    6.1950 C   0  0  2  0  0  0  0  0  0  0  0  0
   19.3639   -0.5890    7.2636 O   0  0  0  0  0  0  0  0  0  0  0  0
   16.4378   -1.3788    5.2167 O   0  0  0  0  0  0  0  0  0  0  0  0
   17.6168    0.3584   13.1511 C   0  0  1  0  0  0  0  0  0  0  0  0
   19.3188    0.8304   10.2886 C   0  0  2  0  0  0  0  0  0  0  0  0
   18.6997   -0.6062   13.2646 C   0  0  1  0  0  0  0  0  0  0  0  0
   19.7751   -0.3015    9.5436 C   0  0  0  0  0  0  0  0  0  0  0  0
   20.1195    1.2522   11.4556 C   0  0  0  0  0  0  0  0  0  0  0  0
   17.6353    1.2044   14.4439 C   0  0  2  0  0  0  0  0  0  0  0  0
   20.5945    0.1498   12.2562 N   0  0  0  0  0  0  0  0  0  0  0  0
   18.8553   -0.1544    4.9504 C   0  0  0  0  0  0  0  0  0  0  0  0
   18.8893    1.8841   14.4856 O   0  0  0  0  0  0  0  0  0  0  0  0
   19.9494   -0.2082   13.2248 N   0  0  0  0  0  0  0  0  0  0  0  0
   17.8333    0.4703   15.8128 C   0  0  1  0  0  0  0  0  0  0  0  0
   17.3840    1.2609   16.8819 O   0  0  0  0  0  0  0  0  0  0  0  0
   18.5441   -1.8982   13.9154 C   0  0  0  0  0  0  0  0  0  0  0  0
   17.5739   -0.9937   15.9347 C   0  0  2  0  0  0  0  0  0  0  0  0
   18.0774    1.0804    5.1138 O   0  0  0  0  0  0  0  0  0  0  0  0
   17.4109   -1.3052   17.3953 O   0  0  0  0  0  0  0  0  0  0  0  0
   18.3817   -1.9865   15.2913 C   0  0  0  0  0  0  0  0  0  0  0  0
  1  2  2  0
  2  3  1  0
  2  4  1  0
  3  5  1  0
  3  6  1  0
  6  7  1  0
  4  8  1  0
  7  9  1  0
  5 10  1  0
  9 10  1  0
  7 11  1  6
 12  8  1  6
  4 13  1  0
 12 14  1  0
  5 15  1  1
 13 15  1  1
 13 16  1  0
 12 17  1  0
 16 18  1  0
  9 19  1  6
 17 20  1  6
 14 21  1  1
 18 21  1  0
 17 22  1  0
 22 23  1  1
 14 24  1  0
 22 25  1  0
 19 26  1  0
 25 27  1  1
 24 28  2  0
 25 28  1  0
M  END
$$$$
48
     RDKit          3D

 28 32  0  0  0  0  0  0  0  0999 V2000
   18.9584    1.9326    5.2255 C   0  0  0  0  0  0  0  0  0  0  0  0
   18.3617    1.0045    4.5806 C   0  0  0  0  0  0  0  0  0  0  0  0
   18.0870    0.0008    5.4624 C   0  0  0  0  0  0  0  0  0  0  0  0
   19.1712    2.0681    6.6078 C   0  0  0  0  0  0  0  0  0  0  0  0
   18.0946   -0.0585    6.7987 C   0  0  2  0  0  0  0  0  0  0  0  0
   18.7023    1.0425    7.3315 C   0  0  0  0  0  0  0  0  0  0  0  0
   18.6764    0.8725    8.7836 C   0  0  2  0  0  0  0  0  0  0  0  0
   19.2191    1.6474    9.7250 N   0  0  0  0  0  0  0  0  0  0  0  0
   18.9557    2.9012    9.8552 C   0  0  0  0  0  0  0  0  0  0  0  0
   18.5903   -0.5357    9.2894 C   0  0  2  0  0  0  0  0  0  0  0  0
   17.9974    3.5218    9.3033 O   0  0  0  0  0  0  0  0  0  0  0  0
   19.3733    0.9396   11.0116 C   0  0  2  0  0  0  0  0  0  0  0  0
   19.8472    3.7816   10.7762 C   0  0  0  0  0  0  0  0  0  0  0  0
   20.6720    0.8221   11.4428 N   0  0  0  0  0  0  0  0  0  0  0  0
   17.6869   -1.1934    7.7715 S   0  0  0  0  0  0  0  0  0  0  0  0
   18.9451   -0.5278   10.5700 C   0  0  1  0  0  0  0  0  0  0  0  0
   18.0349   -0.7891   11.7160 C   0  0  0  0  0  0  0  0  0  0  0  0
   18.5013   -1.3702   12.8297 C   0  0  1  0  0  0  0  0  0  0  0  0
   20.0585   -1.5635   10.4300 C   0  0  0  0  0  0  0  0  0  0  0  0
   19.6140   -2.2003   12.7515 O   0  0  0  0  0  0  0  0  0  0  0  0
   17.8295   -0.7425   14.0110 C   0  0  2  0  0  0  0  0  0  0  0  0
   19.8543   -2.5997   11.5739 C   0  0  0  0  0  0  0  0  0  0  0  0
   17.2601    0.3710   14.1968 C   0  0  0  0  0  0  0  0  0  0  0  0
   18.5360   -1.2372   15.4167 C   0  0  0  0  0  0  0  0  0  0  0  0
   18.0180   -0.7495   16.4108 C   0  0  2  0  0  0  0  0  0  0  0  0
   17.2513    0.3322   16.5874 C   0  0  0  0  0  0  0  0  0  0  0  0
   16.8874    0.8939   15.4715 C   0  0  0  0  0  0  0  0  0  0  0  0
   18.5919   -1.3575   17.7546 C   0  0  0  0  0  0  0  0  0  0  0  0
  1  2  1  0
  2  3  1  0
  1  4  1  0
  5  3  1  6
  4  6  1  0
  5  6  1  0
  6  7  1  0
  7  8  1  1
  8  9  1  0
  7 10  1  0
  9 11  2  0
  8 12  1  0
  9 13  1  0
 12 14  1  6
  5 15  1  0
 10 15  1  1
 10 16  1  0
 12 16  1  0
 16 17  1  1
 18 17  1  6
 16 19  1  0
 18 20  1  0
 18 21  1  0
 19 22  1  0
 20 22  1  0
 21 23  1  6
 21 24  1  0
 24 25  1  0
 25 26  1  0
 23 27  1  0
 26 27  1  0
 25 28  1  1
M  END
$$$$
49
     RDKit          3D

 28 33  0  0  0  0  0  0  0  0999 V2000
   18.1202    1.3032   17.9985 C   0  0  0  0  0  0  0  0  0  0  0  0
   17.7689    1.7286   16.8392 C   0  0  1  0  0  0  0  0  0  0  0  0
   17.8955    3.0014   16.4397 C   0  0  1  0  0  0  0  0  0  0  0  0
   17.3656    0.6445   15.8433 C   0  0  1  0  0  0  0  0  0  0  0  0
   18.5016    3.8905   17.2407 O   0  0  0  0  0  0  0  0  0  0  0  0
   18.4862    3.1893   14.9705 C   0  0  1  0  0  0  0  0  0  0  0  0
   17.7397    2.3107   13.9523 C   0  0  1  0  0  0  0  0  0  0  0  0
   18.3204    4.6891   14.6779 C   0  0  0  0  0  0  0  0  0  0  0  0
   18.1211   -0.0771   18.3082 C   0  0  0  0  0  0  0  0  0  0  0  0
   18.0174    2.6579   12.6556 C   0  0  0  0  0  0  0  0  0  0  0  0
   17.7634    0.8679   14.3203 C   0  0  0  0  0  0  0  0  0  0  0  0
   18.4057    3.6803   12.0959 N   0  0  0  0  0  0  0  0  0  0  0  0
   17.8366   -1.0945   17.4011 C   0  0  0  0  0  0  0  0  0  0  0  0
   18.8472    4.8374   13.1147 C   0  0  1  0  0  0  0  0  0  0  0  0
   17.4717   -0.7175   16.0701 C   0  0  0  0  0  0  0  0  0  0  0  0
   17.8045    1.5244   11.6565 O   0  0  0  0  0  0  0  0  0  0  0  0
   18.9098    3.8182   10.8632 C   0  0  1  0  0  0  0  0  0  0  0  0
   17.8534    1.7976   10.4033 C   0  0  1  0  0  0  0  0  0  0  0  0
   18.4257    2.8964   10.0137 C   0  0  2  0  0  0  0  0  0  0  0  0
   18.1267    0.6379    9.4964 C   0  0  0  0  0  0  0  0  0  0  0  0
   18.8424    5.3450   10.6319 O   0  0  0  0  0  0  0  0  0  0  0  0
   18.6253    3.1105    8.5912 C   0  0  0  0  0  0  0  0  0  0  0  0
   18.1033    0.8832    8.1681 C   0  0  1  0  0  0  0  0  0  0  0  0
   18.5092    2.1515    7.7235 C   0  0  0  0  0  0  0  0  0  0  0  0
   17.9842   -0.2469    7.1774 C   0  0  0  0  0  0  0  0  0  0  0  0
   16.9183   -0.7524    7.0808 O   0  0  0  0  0  0  0  0  0  0  0  0
   18.8566   -0.4502    6.2313 O   0  0  0  0  0  0  0  0  0  0  0  0
   18.7754    5.9968   11.8645 C   0  0  0  0  0  0  0  0  0  0  0  0
  2  1  1  6
  2  3  1  0
  2  4  1  0
  3  5  1  1
  3  6  1  0
  6  7  1  0
  6  8  1  6
  1  9  1  0
  7 10  1  0
  4 11  1  6
  7 11  1  6
 10 12  1  0
  9 13  1  0
 14  8  1  1
 12 14  1  0
  4 15  1  0
 13 15  1  0
 10 16  1  0
 12 17  1  0
 16 18  1  0
 17 19  1  0
 18 19  1  0
 18 20  1  6
 17 21  1  6
 19 22  1  6
 20 23  1  0
 22 24  1  0
 23 24  1  0
 23 25  1  6
 25 26  2  0
 25 27  1  0
 14 28  1  0
 21 28  1  0
M  END
$$$$
5
     RDKit          3D

 12 13  0  0  0  0  0  0  0  0999 V2000
   19.0881   -2.2270   16.7779 C   0  0  0  0  0  0  0  0  0  0  0  0
   18.6073   -1.2451   17.5844 C   0  0  0  0  0  0  0  0  0  0  0  0
   17.9135   -0.3247   16.9495 C   0  0  1  0  0  0  0  0  0  0  0  0
   17.3621    0.8672   17.7407 C   0  0  0  0  0  0  0  0  0  0  0  0
   18.8079   -2.2346   15.3581 C   0  0  0  0  0  0  0  0  0  0  0  0
   17.6860   -0.2066   15.5794 C   0  0  1  0  0  0  0  0  0  0  0  0
   16.9916    0.9485   15.0506 C   0  0  0  0  0  0  0  0  0  0  0  0
   16.8535    1.9388   17.1639 C   0  0  0  0  0  0  0  0  0  0  0  0
   18.2325   -1.1501   14.6959 C   0  0  0  0  0  0  0  0  0  0  0  0
   16.4741    3.0315   18.0275 O   0  0  0  0  0  0  0  0  0  0  0  0
   16.6665    2.0050   15.8367 C   0  0  0  0  0  0  0  0  0  0  0  0
   17.5172    3.8507   18.5280 C   0  0  0  0  0  0  0  0  0  0  0  0
  1  2  1  0
  3  2  1  6
  3  4  1  0
  1  5  1  0
  3  6  1  0
  6  7  1  6
  4  8  1  0
  5  9  1  0
  6  9  1  0
  8 10  1  0
  7 11  1  0
  8 11  1  0
 10 12  1  0
M  END
$$$$
50
     RDKit          3D

 28 31  0  0  0  0  0  0  0  0999 V2000
   20.8522    0.3905   10.7967 O   0  0  0  0  0  0  0  0  0  0  0  0
   19.8548   -0.3149   10.2966 C   0  0  2  0  0  0  0  0  0  0  0  0
   18.5933    0.3763   10.5953 C   0  0  1  0  0  0  0  0  0  0  0  0
   19.8129   -1.6972   10.9343 C   0  0  1  0  0  0  0  0  0  0  0  0
   18.5805    1.6560   10.0649 N   0  0  0  0  0  0  0  0  0  0  0  0
   17.9136    2.6817   10.8110 C   0  0  0  0  0  0  0  0  0  0  0  0
   18.4967   -1.7589   11.3653 C   0  0  2  0  0  0  0  0  0  0  0  0
   19.2919    2.2404    9.0332 C   0  0  0  0  0  0  0  0  0  0  0  0
   18.0200    3.9363   10.2891 C   0  0  2  0  0  0  0  0  0  0  0  0
   17.1479    2.4730   11.9901 O   0  0  0  0  0  0  0  0  0  0  0  0
   17.7735   -0.8647   10.4113 C   0  0  2  0  0  0  0  0  0  0  0  0
   18.2693   -1.4745   12.6883 O   0  0  0  0  0  0  0  0  0  0  0  0
   19.1843   -1.0026   13.5775 C   0  0  0  0  0  0  0  0  0  0  0  0
   18.5316    3.0102    8.2937 N   0  0  0  0  0  0  0  0  0  0  0  0
   17.2557    4.9888   11.2291 C   0  0  0  0  0  0  0  0  0  0  0  0
   17.1551   -1.1510    9.4398 O   0  0  0  0  0  0  0  0  0  0  0  0
   18.6551   -0.8045   14.9561 C   0  0  2  0  0  0  0  0  0  0  0  0
   17.2305    3.5270   12.8570 C   0  0  1  0  0  0  0  0  0  0  0  0
   18.3884    4.3486    9.1687 C   0  0  0  0  0  0  0  0  0  0  0  0
   18.6781   -1.9663   15.7430 C   0  0  0  0  0  0  0  0  0  0  0  0
   17.1781   -0.3550   15.0019 C   0  0  0  0  0  0  0  0  0  0  0  0
   16.9485    4.7198   12.4428 C   0  0  0  0  0  0  0  0  0  0  0  0
   18.3217   -2.0840   16.8821 C   0  0  0  0  0  0  0  0  0  0  0  0
   17.0198    1.0459   14.5422 N   0  0  0  0  0  0  0  0  0  0  0  0
   17.8993    2.0342   14.8152 C   0  0  0  0  0  0  0  0  0  0  0  0
   17.4874    3.2180   14.2911 N   0  0  0  0  0  0  0  0  0  0  0  0
   19.1600    2.0607   15.2345 O   0  0  0  0  0  0  0  0  0  0  0  0
   20.2008   -2.6380    9.8748 O   0  0  0  0  0  0  0  0  0  0  0  0
  2  1  1  1
  2  3  1  0
  2  4  1  0
  3  5  1  6
  5  6  1  0
  4  7  1  0
  5  8  1  0
  6  9  1  0
  6 10  1  0
  3 11  1  0
  7 11  1  0
  7 12  1  1
 12 13  1  0
  8 14  1  0
  9 15  1  6
 11 16  1  6
 13 17  1  0
 10 18  1  0
  9 19  1  0
 14 19  1  0
 17 20  1  1
 17 21  1  0
 15 22  1  0
 18 22  1  1
 20 23  1  0
 21 24  1  0
 24 25  1  0
 18 26  1  0
 25 26  1  0
 25 27  2  0
  4 28  1  6
M  END
$$$$
51
     RDKit          3D

 28 31  0  0  0  0  0  0  0  0999 V2000
   18.9584    1.9326    5.2255 C   0  0  0  0  0  0  0  0  0  0  0  0
   18.3617    1.0045    4.5806 C   0  0  0  0  0  0  0  0  0  0  0  0
   18.0870    0.0008    5.4624 C   0  0  0  0  0  0  0  0  0  0  0  0
   19.1712    2.0681    6.6078 C   0  0  0  0  0  0  0  0  0  0  0  0
   18.0946   -0.0585    6.7987 C   0  0  2  0  0  0  0  0  0  0  0  0
   18.7023    1.0425    7.3315 C   0  0  0  0  0  0  0  0  0  0  0  0
   18.6764    0.8725    8.7836 C   0  0  2  0  0  0  0  0  0  0  0  0
   19.2191    1.6474    9.7250 N   0  0  0  0  0  0  0  0  0  0  0  0
   18.9557    2.9012    9.8552 C   0  0  0  0  0  0  0  0  0  0  0  0
   18.5903   -0.5357    9.2894 C   0  0  2  0  0  0  0  0  0  0  0  0
   17.9974    3.5218    9.3033 O   0  0  0  0  0  0  0  0  0  0  0  0
   19.3733    0.9396   11.0116 C   0  0  2  0  0  0  0  0  0  0  0  0
   19.8472    3.7816   10.7762 C   0  0  0  0  0  0  0  0  0  0  0  0
   20.6720    0.8221   11.4428 N   0  0  0  0  0  0  0  0  0  0  0  0
   17.6869   -1.1934    7.7715 S   0  0  0  0  0  0  0  0  0  0  0  0
   18.9451   -0.5278   10.5700 C   0  0  1  0  0  0  0  0  0  0  0  0
   18.0349   -0.7891   11.7160 C   0  0  0  0  0  0  0  0  0  0  0  0
   18.5013   -1.3702   12.8297 C   0  0  1  0  0  0  0  0  0  0  0  0
   20.0585   -1.5635   10.4300 C   0  0  0  0  0  0  0  0  0  0  0  0
   19.6140   -2.2003   12.7515 O   0  0  0  0  0  0  0  0  0  0  0  0
   17.8295   -0.7425   14.0110 C   0  0  2  0  0  0  0  0  0  0  0  0
   18.2301   -1.2946   15.3285 C   0  0  0  0  0  0  0  0  0  0  0  0
   20.4828   -1.9742    9.3087 O   0  0  0  0  0  0  0  0  0  0  0  0
   16.8910    0.1890   14.0276 C   0  0  0  0  0  0  0  0  0  0  0  0
   19.1587   -2.3654   15.5063 O   0  0  0  0  0  0  0  0  0  0  0  0
   17.6970   -0.7655   16.5523 C   0  0  0  0  0  0  0  0  0  0  0  0
   16.5129    0.8219   15.2072 C   0  0  0  0  0  0  0  0  0  0  0  0
   16.9189    0.2964   16.4201 C   0  0  0  0  0  0  0  0  0  0  0  0
  1  2  1  0
  2  3  1  0
  1  4  1  0
  5  3  1  6
  4  6  1  0
  5  6  1  0
  6  7  1  0
  7  8  1  1
  8  9  1  0
  7 10  1  0
  9 11  2  0
  8 12  1  0
  9 13  1  0
 12 14  1  6
  5 15  1  0
 10 15  1  1
 10 16  1  0
 12 16  1  0
 16 17  1  1
 17 18  1  0
 16 19  1  0
 18 20  1  1
 18 21  1  0
 21 22  1  0
 19 23  1  0
 21 24  1  6
 22 25  1  0
 22 26  1  0
 24 27  1  0
 26 28  1  0
 27 28  1  0
M  END
$$$$
52
     RDKit          3D

 28 31  0  0  0  0  0  0  0  0999 V2000
   20.8522    0.3905   10.7967 O   0  0  0  0  0  0  0  0  0  0  0  0
   19.8548   -0.3149   10.2966 C   0  0  2  0  0  0  0  0  0  0  0  0
   18.5933    0.3763   10.5953 C   0  0  1  0  0  0  0  0  0  0  0  0
   19.8129   -1.6972   10.9343 C   0  0  1  0  0  0  0  0  0  0  0  0
   18.5805    1.6560   10.0649 N   0  0  0  0  0  0  0  0  0  0  0  0
   17.9136    2.6817   10.8110 C   0  0  0  0  0  0  0  0  0  0  0  0
   18.4967   -1.7589   11.3653 C   0  0  2  0  0  0  0  0  0  0  0  0
   19.2919    2.2404    9.0332 C   0  0  0  0  0  0  0  0  0  0  0  0
   18.0200    3.9363   10.2891 C   0  0  2  0  0  0  0  0  0  0  0  0
   17.1479    2.4730   11.9901 O   0  0  0  0  0  0  0  0  0  0  0  0
   17.7735   -0.8647   10.4113 C   0  0  2  0  0  0  0  0  0  0  0  0
   18.2693   -1.4745   12.6883 O   0  0  0  0  0  0  0  0  0  0  0  0
   19.1843   -1.0026   13.5775 C   0  0  0  0  0  0  0  0  0  0  0  0
   18.5316    3.0102    8.2937 N   0  0  0  0  0  0  0  0  0  0  0  0
   17.2557    4.9888   11.2291 C   0  0  0  0  0  0  0  0  0  0  0  0
   17.1551   -1.1510    9.4398 O   0  0  0  0  0  0  0  0  0  0  0  0
   18.6551   -0.8045   14.9561 C   0  0  2  0  0  0  0  0  0  0  0  0
   17.2305    3.5270   12.8570 C   0  0  2  0  0  0  0  0  0  0  0  0
   18.3884    4.3486    9.1687 C   0  0  0  0  0  0  0  0  0  0  0  0
   18.6781   -1.9663   15.7430 C   0  0  0  0  0  0  0  0  0  0  0  0
   17.1781   -0.3550   15.0019 C   0  0  0  0  0  0  0  0  0  0  0  0
   16.9485    4.7198   12.4428 C   0  0  0  0  0  0  0  0  0  0  0  0
   18.3217   -2.0840   16.8821 C   0  0  0  0  0  0  0  0  0  0  0  0
   17.0198    1.0459   14.5422 N   0  0  0  0  0  0  0  0  0  0  0  0
   17.8448    2.1372   15.1179 C   0  0  0  0  0  0  0  0  0  0  0  0
   17.7437    3.2535   14.2459 C   0  0  0  0  0  0  0  0  0  0  0  0
   18.4375   -1.1172   18.0064 C   0  0  0  0  0  0  0  0  0  0  0  0
   20.2102   -2.6020    9.8586 O   0  0  0  0  0  0  0  0  0  0  0  0
  2  1  1  1
  2  3  1  0
  2  4  1  0
  3  5  1  6
  5  6  1  0
  4  7  1  0
  5  8  1  0
  6  9  1  0
  6 10  1  0
  3 11  1  0
  7 11  1  0
  7 12  1  1
 12 13  1  0
  8 14  1  0
  9 15  1  6
 11 16  1  6
 13 17  1  0
 10 18  1  0
  9 19  1  0
 14 19  1  0
 17 20  1  1
 17 21  1  0
 15 22  1  0
 18 22  1  6
 20 23  1  0
 21 24  1  0
 24 25  1  0
 18 26  1  0
 25 26  1  0
 23 27  1  0
  4 28  1  6
M  END
$$$$
53
     RDKit          3D

 28 31  0  0  0  0  0  0  0  0999 V2000
   15.7884   -0.0453   10.1143 O   0  0  0  0  0  0  0  0  0  0  0  0
   16.9722   -0.0787    9.8939 C   0  0  0  0  0  0  0  0  0  0  0  0
   17.3892   -0.8401    8.8905 N   0  0  0  0  0  0  0  0  0  0  0  0
   17.8323    0.4844   10.8253 N   0  0  0  0  0  0  0  0  0  0  0  0
   18.7923   -0.8422    8.5275 C   0  0  1  0  0  0  0  0  0  0  0  0
   16.6946   -1.3568    7.5876 C   0  0  0  0  0  0  0  0  0  0  0  0
   17.1659   -0.7488    6.4247 C   0  0  1  0  0  0  0  0  0  0  0  0
   17.3447    1.0249   12.0818 C   0  0  0  0  0  0  0  0  0  0  0  0
   18.5562   -0.9239    6.1950 C   0  0  2  0  0  0  0  0  0  0  0  0
   19.3639   -0.5890    7.2636 O   0  0  0  0  0  0  0  0  0  0  0  0
   16.4378   -1.3788    5.2167 O   0  0  0  0  0  0  0  0  0  0  0  0
   17.6168    0.3584   13.1511 C   0  0  1  0  0  0  0  0  0  0  0  0
   19.3188    0.8304   10.2886 C   0  0  2  0  0  0  0  0  0  0  0  0
   18.6997   -0.6062   13.2646 C   0  0  1  0  0  0  0  0  0  0  0  0
   19.7751   -0.3015    9.5436 C   0  0  0  0  0  0  0  0  0  0  0  0
   20.1195    1.2522   11.4556 C   0  0  0  0  0  0  0  0  0  0  0  0
   17.6353    1.2044   14.4439 C   0  0  2  0  0  0  0  0  0  0  0  0
   20.5945    0.1498   12.2562 N   0  0  0  0  0  0  0  0  0  0  0  0
   18.8553   -0.1544    4.9504 C   0  0  0  0  0  0  0  0  0  0  0  0
   18.8893    1.8841   14.4856 O   0  0  0  0  0  0  0  0  0  0  0  0
   19.9494   -0.2082   13.2248 N   0  0  0  0  0  0  0  0  0  0  0  0
   17.8333    0.4703   15.8128 C   0  0  1  0  0  0  0  0  0  0  0  0
   17.3840    1.2609   16.8819 O   0  0  0  0  0  0  0  0  0  0  0  0
   18.0685    1.0804    5.1042 O   0  0  0  0  0  0  0  0  0  0  0  0
   18.1037   -0.8877   15.8377 C   0  0  0  0  0  0  0  0  0  0  0  0
   18.5539   -1.6432   14.4818 C   0  0  0  0  0  0  0  0  0  0  0  0
   18.0175   -1.6050   16.9759 O   0  0  0  0  0  0  0  0  0  0  0  0
   19.3421   -2.0779   17.4739 C   0  0  0  0  0  0  0  0  0  0  0  0
  1  2  2  0
  2  3  1  0
  2  4  1  0
  3  5  1  0
  3  6  1  0
  6  7  1  0
  4  8  1  0
  7  9  1  0
  5 10  1  0
  9 10  1  0
  7 11  1  6
 12  8  1  6
  4 13  1  0
 12 14  1  0
  5 15  1  1
 13 15  1  1
 13 16  1  0
 12 17  1  0
 16 18  1  0
  9 19  1  6
 17 20  1  6
 14 21  1  0
 18 21  1  0
 17 22  1  0
 22 23  1  1
 19 24  1  0
 22 25  1  0
 14 26  1  1
 25 26  1  0
 25 27  1  0
 27 28  1  0
M  END
$$$$
54
     RDKit          3D

 28 33  0  0  0  0  0  0  0  0999 V2000
   16.6028   -4.4775    9.3104 C   0  0  0  0  0  0  0  0  0  0  0  0
   17.2116   -3.3166    9.2817 C   0  0  0  0  0  0  0  0  0  0  0  0
   18.2502   -2.8801    9.8692 C   0  0  0  0  0  0  0  0  0  0  0  0
   18.7433   -1.4733    9.7300 N   0  0  0  0  0  0  0  0  0  0  0  0
   18.2767   -0.7141    8.8425 C   0  0  1  0  0  0  0  0  0  0  0  0
   18.9311    0.6234    8.9293 C   0  0  1  0  0  0  0  0  0  0  0  0
   17.2002   -5.5159    9.0496 C   0  0  0  0  0  0  0  0  0  0  0  0
   17.4366   -1.0211    7.8308 O   0  0  0  0  0  0  0  0  0  0  0  0
   19.7513   -1.0286   10.8319 C   0  0  1  0  0  0  0  0  0  0  0  0
   17.5621   -0.4559    6.6497 C   0  0  1  0  0  0  0  0  0  0  0  0
   18.3790    1.6268    8.2054 O   0  0  0  0  0  0  0  0  0  0  0  0
   19.6916    0.3723   10.3652 C   0  0  1  0  0  0  0  0  0  0  0  0
   18.7045   -5.5549    9.5260 C   0  0  0  0  0  0  0  0  0  0  0  0
   19.1946   -4.2429    9.6142 C   0  0  0  0  0  0  0  0  0  0  0  0
   20.5275    1.2453   11.0570 C   0  0  1  0  0  0  0  0  0  0  0  0
   20.3147    2.6034   11.0336 N   0  0  0  0  0  0  0  0  0  0  0  0
   20.6061    0.7355   12.3586 O   0  0  0  0  0  0  0  0  0  0  0  0
   18.2877    0.9651    6.7745 C   0  0  2  0  0  0  0  0  0  0  0  0
   18.2186    1.9438    5.7803 C   0  0  0  0  0  0  0  0  0  0  0  0
   19.3056    0.3592   12.6074 C   0  0  2  0  0  0  0  0  0  0  0  0
   19.0923   -0.9376   12.1261 C   0  0  0  0  0  0  0  0  0  0  0  0
   18.1703    1.2737   12.4551 C   0  0  0  0  0  0  0  0  0  0  0  0
   17.3394   -0.7205    5.4558 C   0  0  2  0  0  0  0  0  0  0  0  0
   18.1325    1.3797    4.4401 C   0  0  0  0  0  0  0  0  0  0  0  0
   18.9516    2.9645   11.6170 C   0  0  0  0  0  0  0  0  0  0  0  0
   17.1242    1.4060   12.9201 O   0  0  0  0  0  0  0  0  0  0  0  0
   16.9261   -2.1045    5.1342 N   0  0  0  0  0  0  0  0  0  0  0  0
   17.8428   -0.0680    4.3151 C   0  0  0  0  0  0  0  0  0  0  0  0
  1  2  1  0
  2  3  1  0
  3  4  1  0
  4  5  1  0
  5  6  1  0
  1  7  1  0
  5  8  1  6
  4  9  1  0
 10  8  1  6
  6 11  1  1
  6 12  1  0
  9 12  1  0
  7 13  1  0
  3 14  1  0
 13 14  1  0
 12 15  1  6
 15 16  1  1
 15 17  1  0
 10 18  1  0
 11 18  1  0
 18 19  1  6
 17 20  1  0
  9 21  1  1
 20 21  1  6
 20 22  1  0
 10 23  1  0
 19 24  1  0
 16 25  1  0
 22 25  1  0
 22 26  2  0
 23 27  1  6
 23 28  1  0
 24 28  1  0
M  END
$$$$
55
     RDKit          3D

 28 33  0  0  0  0  0  0  0  0999 V2000
   18.8579    1.8829    4.7669 C   0  0  0  0  0  0  0  0  0  0  0  0
   18.6818    1.4842    5.9171 C   0  0  0  0  0  0  0  0  0  0  0  0
   18.1017    0.2248    6.2468 C   0  0  0  0  0  0  0  0  0  0  0  0
   17.8160   -0.2171    7.5817 N   0  0  0  0  0  0  0  0  0  0  0  0
   17.7281   -0.6052    5.1439 C   0  0  0  0  0  0  0  0  0  0  0  0
   16.9684   -1.1991    7.8690 C   0  0  0  0  0  0  0  0  0  0  0  0
   18.4661    0.5093    8.7325 C   0  0  0  0  0  0  0  0  0  0  0  0
   18.5792    1.0179    3.6317 C   0  0  0  0  0  0  0  0  0  0  0  0
   17.5624   -2.2561    8.8541 C   0  0  1  0  0  0  0  0  0  0  0  0
   16.8387   -3.4148    9.0445 C   0  0  0  0  0  0  0  0  0  0  0  0
   18.0664   -0.2648    3.8993 C   0  0  0  0  0  0  0  0  0  0  0  0
   18.9388   -2.6542    8.4128 C   0  0  2  0  0  0  0  0  0  0  0  0
   19.4692   -3.6531    9.4573 C   0  0  0  0  0  0  0  0  0  0  0  0
   19.1283   -0.1889    9.7088 C   0  0  1  0  0  0  0  0  0  0  0  0
   17.7982   -1.5728   10.3533 C   0  0  1  0  0  0  0  0  0  0  0  0
   16.5603   -0.7319   10.7280 C   0  0  0  0  0  0  0  0  0  0  0  0
   20.3834   -0.8688    9.2724 C   0  0  0  0  0  0  0  0  0  0  0  0
   18.2935    1.8546    8.7627 O   0  0  0  0  0  0  0  0  0  0  0  0
   19.2139    0.2479   11.1565 C   0  0  1  0  0  0  0  0  0  0  0  0
   20.1641   -1.7722    8.3513 N   0  0  0  0  0  0  0  0  0  0  0  0
   20.4554    1.0413   11.3426 C   0  0  2  0  0  0  0  0  0  0  0  0
   17.2128    0.2403   11.8184 C   0  0  0  0  0  0  0  0  0  0  0  0
   18.2649   -4.7301    9.6913 C   0  0  0  0  0  0  0  0  0  0  0  0
   18.1839    0.9699   11.7940 C   0  0  0  0  0  0  0  0  0  0  0  0
   21.2695    0.7101   12.1088 O   0  0  0  0  0  0  0  0  0  0  0  0
   18.3511    2.4571   12.1361 C   0  0  0  0  0  0  0  0  0  0  0  0
   17.6497    3.0335   12.7921 O   0  0  0  0  0  0  0  0  0  0  0  0
   19.9984    2.4766   11.5747 C   0  0  0  0  0  0  0  0  0  0  0  0
  1  2  1  0
  2  3  1  0
  3  4  1  0
  3  5  1  0
  4  6  1  0
  4  7  1  0
  1  8  1  0
  9  6  1  6
  9 10  1  0
  5 11  1  0
  8 11  1  0
  9 12  1  0
 12 13  1  1
  7 14  1  0
  9 15  1  0
 14 15  1  0
 15 16  1  6
 14 17  1  6
  7 18  2  0
 14 19  1  0
 12 20  1  0
 17 20  1  0
 19 21  1  0
 16 22  1  0
 10 23  1  0
 13 23  1  0
 19 24  1  6
 22 24  2  0
 21 25  1  1
 24 26  1  0
 26 27  2  0
 21 28  1  0
 26 28  1  0
M  END
$$$$
56
     RDKit          3D

 29 32  0  0  0  0  0  0  0  0999 V2000
   20.8522    0.3905   10.7967 O   0  0  0  0  0  0  0  0  0  0  0  0
   19.8548   -0.3149   10.2966 C   0  0  2  0  0  0  0  0  0  0  0  0
   18.5933    0.3763   10.5953 C   0  0  1  0  0  0  0  0  0  0  0  0
   19.8129   -1.6972   10.9343 C   0  0  1  0  0  0  0  0  0  0  0  0
   18.5805    1.6560   10.0649 N   0  0  0  0  0  0  0  0  0  0  0  0
   17.9136    2.6817   10.8110 C   0  0  0  0  0  0  0  0  0  0  0  0
   18.4967   -1.7589   11.3653 C   0  0  2  0  0  0  0  0  0  0  0  0
   19.2919    2.2404    9.0332 C   0  0  0  0  0  0  0  0  0  0  0  0
   18.0200    3.9363   10.2891 C   0  0  2  0  0  0  0  0  0  0  0  0
   17.1479    2.4730   11.9901 O   0  0  0  0  0  0  0  0  0  0  0  0
   17.7735   -0.8647   10.4113 C   0  0  2  0  0  0  0  0  0  0  0  0
   18.2693   -1.4745   12.6883 O   0  0  0  0  0  0  0  0  0  0  0  0
   19.1843   -1.0026   13.5775 C   0  0  0  0  0  0  0  0  0  0  0  0
   18.5316    3.0102    8.2937 N   0  0  0  0  0  0  0  0  0  0  0  0
   17.2557    4.9888   11.2291 C   0  0  0  0  0  0  0  0  0  0  0  0
   17.1551   -1.1510    9.4398 O   0  0  0  0  0  0  0  0  0  0  0  0
   18.6551   -0.8045   14.9561 C   0  0  2  0  0  0  0  0  0  0  0  0
   17.2305    3.5270   12.8570 C   0  0  0  0  0  0  0  0  0  0  0  0
   18.3884    4.3486    9.1687 C   0  0  0  0  0  0  0  0  0  0  0  0
   18.6781   -1.9663   15.7430 C   0  0  0  0  0  0  0  0  0  0  0  0
   17.1781   -0.3550   15.0019 C   0  0  0  0  0  0  0  0  0  0  0  0
   16.9485    4.7198   12.4428 C   0  0  0  0  0  0  0  0  0  0  0  0
   18.3217   -2.0840   16.8821 C   0  0  0  0  0  0  0  0  0  0  0  0
   17.0198    1.0459   14.5422 N   0  0  0  0  0  0  0  0  0  0  0  0
   17.8993    2.0342   14.8152 C   0  0  0  0  0  0  0  0  0  0  0  0
   17.6667    3.2979   14.2866 N   0  0  0  0  0  0  0  0  0  0  0  0
   18.7929    1.9902   15.7224 O   0  0  0  0  0  0  0  0  0  0  0  0
   19.1752   -2.3661   18.0311 O   0  0  0  0  0  0  0  0  0  0  0  0
   20.2178   -2.6284    9.8761 O   0  0  0  0  0  0  0  0  0  0  0  0
  2  1  1  1
  2  3  1  0
  2  4  1  0
  3  5  1  6
  5  6  1  0
  4  7  1  0
  5  8  1  0
  6  9  1  0
  6 10  1  0
  3 11  1  0
  7 11  1  0
  7 12  1  1
 12 13  1  0
  8 14  1  0
  9 15  1  6
 11 16  1  6
 13 17  1  0
 10 18  1  0
  9 19  1  0
 14 19  1  0
 17 20  1  1
 17 21  1  0
 15 22  1  0
 18 22  1  0
 20 23  1  0
 21 24  1  0
 24 25  1  0
 18 26  1  0
 25 26  1  0
 25 27  2  0
 23 28  1  0
  4 29  1  6
M  END
$$$$
57
     RDKit          3D

 29 33  0  0  0  0  0  0  0  0999 V2000
   18.7167   -1.7873   17.2486 C   0  0  0  0  0  0  0  0  0  0  0  0
   17.9033   -0.7595   17.6024 C   0  0  1  0  0  0  0  0  0  0  0  0
   18.8545   -2.1094   15.8726 C   0  0  0  0  0  0  0  0  0  0  0  0
   18.3986   -1.1293   14.9493 C   0  0  0  0  0  0  0  0  0  0  0  0
   17.7842   -0.3680   19.0069 C   0  0  0  0  0  0  0  0  0  0  0  0
   17.6444    0.2718   16.5621 C   0  0  0  0  0  0  0  0  0  0  0  0
   17.8732   -0.0378   15.3414 C   0  0  0  0  0  0  0  0  0  0  0  0
   17.4763    0.9222   14.2721 C   0  0  0  0  0  0  0  0  0  0  0  0
   17.5998    2.2626   14.4886 N   0  0  0  0  0  0  0  0  0  0  0  0
   16.9193    0.5538   13.0957 O   0  0  0  0  0  0  0  0  0  0  0  0
   17.3824    3.2301   13.4205 C   0  0  1  0  0  0  0  0  0  0  0  0
   17.4347    4.5598   13.8728 C   0  0  0  0  0  0  0  0  0  0  0  0
   17.7236    2.9869   12.0712 C   0  0  2  0  0  0  0  0  0  0  0  0
   17.6162    4.0534   11.1602 C   0  0  2  0  0  0  0  0  0  0  0  0
   17.9605    1.5570   11.4490 N   0  0  0  0  0  0  0  0  0  0  0  0
   17.7105    3.8228    9.6244 C   0  0  0  0  0  0  0  0  0  0  0  0
   17.3880    5.5788   12.9205 C   0  0  0  0  0  0  0  0  0  0  0  0
   17.5098    5.3146   11.5668 C   0  0  0  0  0  0  0  0  0  0  0  0
   17.9846    2.6016    9.1554 C   0  0  1  0  0  0  0  0  0  0  0  0
   18.2426    2.4185    7.8606 N   0  0  0  0  0  0  0  0  0  0  0  0
   18.1401    1.5368   10.0812 C   0  0  2  0  0  0  0  0  0  0  0  0
   18.3805    0.1585    9.5909 C   0  0  2  0  0  0  0  0  0  0  0  0
   18.6668    0.0347    8.2007 C   0  0  2  0  0  0  0  0  0  0  0  0
   17.9038   -0.9769   10.2692 C   0  0  0  0  0  0  0  0  0  0  0  0
   18.6532    1.1813    7.3704 C   0  0  0  0  0  0  0  0  0  0  0  0
   18.8268   -1.2822    7.8727 C   0  0  0  0  0  0  0  0  0  0  0  0
   18.8390    1.0477    5.9796 O   0  0  0  0  0  0  0  0  0  0  0  0
   18.2758   -2.1493    9.5699 C   0  0  0  0  0  0  0  0  0  0  0  0
   18.7117   -2.3152    8.4763 C   0  0  0  0  0  0  0  0  0  0  0  0
  1  2  1  0
  1  3  1  0
  3  4  1  0
  2  5  1  1
  2  6  1  0
  4  7  1  0
  6  7  1  0
  7  8  1  0
  8  9  1  0
  8 10  2  0
 11  9  1  1
 11 12  1  0
 11 13  1  0
 13 14  1  0
 13 15  1  6
 14 16  1  6
 12 17  1  0
 14 18  1  0
 17 18  1  0
 19 16  1  1
 19 20  1  0
 21 15  1  1
 19 21  1  0
 21 22  1  0
 22 23  1  0
 22 24  1  6
 20 25  1  0
 23 25  1  0
 23 26  1  6
 25 27  2  0
 24 28  1  0
 26 29  1  0
 28 29  1  0
M  END
$$$$
58
     RDKit          3D

 30 33  0  0  0  0  0  0  0  0999 V2000
   18.8579    1.8829    4.7669 C   0  0  0  0  0  0  0  0  0  0  0  0
   18.6818    1.4842    5.9171 C   0  0  2  0  0  0  0  0  0  0  0  0
   18.1017    0.2248    6.2468 C   0  0  1  0  0  0  0  0  0  0  0  0
   17.8160   -0.2171    7.5817 N   0  0  0  0  0  0  0  0  0  0  0  0
   18.9980    2.3385    7.0711 C   0  0  0  0  0  0  0  0  0  0  0  0
   17.4684   -0.8466    5.3240 C   0  0  0  0  0  0  0  0  0  0  0  0
   18.4773    0.9046    3.6128 C   0  0  0  0  0  0  0  0  0  0  0  0
   17.8940   -0.3526    3.9481 C   0  0  0  0  0  0  0  0  0  0  0  0
   18.7582    1.9174    8.3377 C   0  0  0  0  0  0  0  0  0  0  0  0
   18.1282    0.5853    8.5898 C   0  0  2  0  0  0  0  0  0  0  0  0
   18.0119    0.1255    9.9642 N   0  0  0  0  0  0  0  0  0  0  0  0
   16.7600   -0.3074   10.2594 C   0  0  0  0  0  0  0  0  0  0  0  0
   19.1409   -0.3240   10.7167 C   0  0  0  0  0  0  0  0  0  0  0  0
   18.8730   -0.4537   11.9868 O   0  0  0  0  0  0  0  0  0  0  0  0
   18.8125    0.6596   12.7866 C   0  0  2  0  0  0  0  0  0  0  0  0
   18.5191    0.3653   14.1123 C   0  0  1  0  0  0  0  0  0  0  0  0
   18.9341    1.8939   12.2710 C   0  0  0  0  0  0  0  0  0  0  0  0
   18.5463   -0.9716   14.6917 C   0  0  0  0  0  0  0  0  0  0  0  0
   18.5181    3.0508   13.0565 C   0  0  1  0  0  0  0  0  0  0  0  0
   18.2247   -1.0627   16.1648 C   0  0  1  0  0  0  0  0  0  0  0  0
   18.3042    2.7858   14.4379 C   0  0  0  0  0  0  0  0  0  0  0  0
   18.7403    4.3735   12.4489 C   0  0  0  0  0  0  0  0  0  0  0  0
   18.2552   -2.2988   16.7572 F   0  0  0  0  0  0  0  0  0  0  0  0
   17.9799    0.0537   16.8771 C   0  0  0  0  0  0  0  0  0  0  0  0
   18.2502    1.4572   14.9312 C   0  0  0  0  0  0  0  0  0  0  0  0
   20.3749   -0.6980   10.1765 C   0  0  0  0  0  0  0  0  0  0  0  0
   17.9474    1.3477   16.2484 C   0  0  0  0  0  0  0  0  0  0  0  0
   20.7172   -1.8112    9.7254 N   0  0  0  0  0  0  0  0  0  0  0  0
   18.2318    5.3824   13.1172 O   0  0  0  0  0  0  0  0  0  0  0  0
   19.1765    4.6770   11.2983 N   0  0  0  0  0  0  0  0  0  0  0  0
  2  1  1  6
  2  3  1  0
  3  4  1  0
  2  5  1  0
  3  6  1  6
  1  7  1  0
  6  8  1  0
  7  8  1  0
  5  9  1  0
  4 10  1  0
  9 10  1  0
 10 11  1  1
 11 12  1  0
 11 13  1  0
 13 14  1  0
 15 14  1  6
 15 16  1  0
 15 17  1  0
 16 18  1  1
 17 19  1  0
 18 20  1  0
 19 21  1  0
 19 22  1  1
 20 23  1  1
 20 24  1  0
 16 25  1  0
 21 25  1  0
 13 26  2  3
 24 27  1  0
 25 27  1  0
 26 28  1  0
 22 29  2  0
 22 30  1  0
M  END
$$$$
59
     RDKit          3D

 30 35  0  0  0  0  0  0  0  0999 V2000
   18.7669   -2.0629   15.8816 C   0  0  0  0  0  0  0  0  0  0  0  0
   18.2939   -1.4542   16.9168 C   0  0  0  0  0  0  0  0  0  0  0  0
   18.5140   -1.4731   14.6004 C   0  0  2  0  0  0  0  0  0  0  0  0
   18.9159   -1.9595   13.4056 C   0  0  0  0  0  0  0  0  0  0  0  0
   18.0068   -0.1594   14.8235 C   0  0  0  0  0  0  0  0  0  0  0  0
   17.7593    0.6187   13.5942 C   0  0  2  0  0  0  0  0  0  0  0  0
   18.6507   -1.1781   12.2583 C   0  0  0  0  0  0  0  0  0  0  0  0
   17.6155    0.6310   15.9694 C   0  0  0  0  0  0  0  0  0  0  0  0
   17.9199   -0.1899   17.1646 C   0  0  0  0  0  0  0  0  0  0  0  0
   18.9853   -1.6649   10.9655 N   0  0  0  0  0  0  0  0  0  0  0  0
   17.0984    1.8218   13.6510 O   0  0  0  0  0  0  0  0  0  0  0  0
   19.4803   -2.8034   10.7367 C   0  0  0  0  0  0  0  0  0  0  0  0
   17.8788    2.8401   13.1992 C   0  0  0  0  0  0  0  0  0  0  0  0
   18.8695   -3.8643   10.9311 O   0  0  0  0  0  0  0  0  0  0  0  0
   18.4957   -0.7002    9.8775 C   0  0  1  0  0  0  0  0  0  0  0  0
   20.3728   -2.8347    9.5632 N   0  0  0  0  0  0  0  0  0  0  0  0
   18.0623    0.1224   12.3678 C   0  0  0  0  0  0  0  0  0  0  0  0
   17.4335    3.4196   11.9083 C   0  0  0  0  0  0  0  0  0  0  0  0
   17.9233    0.5316   10.8608 C   0  0  2  0  0  0  0  0  0  0  0  0
   19.3837   -0.1042    8.9393 C   0  0  0  0  0  0  0  0  0  0  0  0
   16.5867    4.4073   11.8301 O   0  0  0  0  0  0  0  0  0  0  0  0
   18.8526    0.9936    8.3122 C   0  0  1  0  0  0  0  0  0  0  0  0
   20.5843   -0.7520    8.7911 N   0  0  0  0  0  0  0  0  0  0  0  0
   20.9578   -1.7153    9.4123 C   0  0  0  0  0  0  0  0  0  0  0  0
   19.4472    1.3442    6.9966 C   0  0  0  0  0  0  0  0  0  0  0  0
   17.6606    2.8936   10.6549 N   0  0  0  0  0  0  0  0  0  0  0  0
   18.5905    1.0504    5.8665 C   0  0  0  0  0  0  0  0  0  0  0  0
   17.4466    1.1618    8.3867 C   0  0  0  0  0  0  0  0  0  0  0  0
   17.2951    1.4828   10.1511 C   0  0  1  0  0  0  0  0  0  0  0  0
   18.9419    1.6156    4.5145 C   0  0  0  0  0  0  0  0  0  0  0  0
  1  2  1  0
  3  1  1  1
  3  4  1  0
  3  5  1  0
  5  6  1  0
  4  7  1  0
  5  8  1  0
  2  9  1  0
  8  9  1  0
  7 10  1  0
  6 11  1  6
 10 12  1  0
 11 13  1  0
 12 14  2  0
 10 15  1  0
 12 16  1  0
  6 17  1  0
  7 17  1  0
 13 18  1  0
 15 19  1  0
 19 17  1  1
 15 20  1  6
 18 21  2  0
 20 22  1  0
 20 23  1  0
 16 24  1  0
 23 24  1  0
 22 25  1  6
 18 26  1  0
 25 27  1  0
 22 28  1  0
 19 29  1  0
 26 29  1  0
 29 28  1  6
 27 30  1  0
M  END
$$$$
6
     RDKit          3D

 14 15  0  0  0  0  0  0  0  0999 V2000
   18.8579    1.8829    4.7669 C   0  0  0  0  0  0  0  0  0  0  0  0
   18.6818    1.4842    5.9171 C   0  0  0  0  0  0  0  0  0  0  0  0
   18.4096    0.3482    6.2374 N   0  0  0  0  0  0  0  0  0  0  0  0
   18.2443   -0.4644    5.0150 C   0  0  0  0  0  0  0  0  0  0  0  0
   18.6505    0.6656    3.9427 C   0  0  0  0  0  0  0  0  0  0  0  0
   18.2134   -0.3525    7.4678 C   0  0  1  0  0  0  0  0  0  0  0  0
   18.8610   -1.3912    7.8448 O   0  0  0  0  0  0  0  0  0  0  0  0
   18.6995   -2.1736    8.9154 C   0  0  1  0  0  0  0  0  0  0  0  0
   18.3042    0.4650    8.7461 C   0  0  1  0  0  0  0  0  0  0  0  0
   19.7524   -2.8949    9.4369 C   0  0  0  0  0  0  0  0  0  0  0  0
   19.2974   -4.1098    9.9243 O   0  0  0  0  0  0  0  0  0  0  0  0
   18.3865   -0.7078    9.7390 C   0  0  1  0  0  0  0  0  0  0  0  0
   19.5657    1.0990    8.9582 O   0  0  0  0  0  0  0  0  0  0  0  0
   17.1098   -0.8282   10.5555 O   0  0  0  0  0  0  0  0  0  0  0  0
  1  2  1  0
  2  3  1  0
  3  4  1  0
  1  5  1  0
  4  5  1  0
  6  3  1  6
  6  7  1  0
  7  8  1  0
  6  9  1  0
  8 10  1  1
 10 11  1  0
  8 12  1  0
  9 12  1  0
  9 13  1  6
 12 14  1  6
M  END
$$$$
60
     RDKit          3D

 30 33  0  0  0  0  0  0  0  0999 V2000
   19.0881   -2.2270   16.7779 C   0  0  0  0  0  0  0  0  0  0  0  0
   18.5610   -1.9011   15.5213 C   0  0  0  0  0  0  0  0  0  0  0  0
   18.5925   -1.4624   17.8626 C   0  0  0  0  0  0  0  0  0  0  0  0
   17.8213   -0.3253   17.5134 C   0  0  1  0  0  0  0  0  0  0  0  0
   17.3333    0.5798   18.6112 C   0  0  0  0  0  0  0  0  0  0  0  0
   17.8584   -0.7832   15.2212 C   0  0  1  0  0  0  0  0  0  0  0  0
   17.5482    0.0444   16.2523 C   0  0  2  0  0  0  0  0  0  0  0  0
   17.5024   -0.3983   13.8291 C   0  0  1  0  0  0  0  0  0  0  0  0
   17.1163    0.9784   13.6235 C   0  0  1  0  0  0  0  0  0  0  0  0
   17.5819   -1.1295   12.7916 O   0  0  0  0  0  0  0  0  0  0  0  0
   18.7298   -1.5616   12.2811 C   0  0  0  0  0  0  0  0  0  0  0  0
   18.7875   -2.0244   11.1835 C   0  0  1  0  0  0  0  0  0  0  0  0
   18.7626   -3.3142   10.8706 C   0  0  0  0  0  0  0  0  0  0  0  0
   18.3801   -3.8905    9.8320 C   0  0  2  0  0  0  0  0  0  0  0  0
   18.7553   -1.1507    9.9367 C   0  0  2  0  0  0  0  0  0  0  0  0
   18.8276    0.3676   10.0436 C   0  0  2  0  0  0  0  0  0  0  0  0
   16.8850    1.5133   12.3491 C   0  0  0  0  0  0  0  0  0  0  0  0
   18.0075    1.1026    9.2697 C   0  0  0  0  0  0  0  0  0  0  0  0
   16.8518    1.8107   14.7820 N   0  0  0  0  0  0  0  0  0  0  0  0
   18.5887   -1.7987    8.7163 C   0  0  0  0  0  0  0  0  0  0  0  0
   17.0974    1.3984   15.9158 C   0  0  0  0  0  0  0  0  0  0  0  0
   18.3112   -5.3388    9.6323 O   0  0  0  0  0  0  0  0  0  0  0  0
   17.0873   -5.7448    9.2601 C   0  0  0  0  0  0  0  0  0  0  0  0
   19.8882   -1.3642   13.0087 O   0  0  0  0  0  0  0  0  0  0  0  0
   18.4794   -2.9681    8.6702 C   0  0  0  0  0  0  0  0  0  0  0  0
   18.3231    2.1933    8.7329 C   0  0  0  0  0  0  0  0  0  0  0  0
   19.8653    0.9018   10.8954 C   0  0  1  0  0  0  0  0  0  0  0  0
   20.6448    0.3324   11.7733 O   0  0  0  0  0  0  0  0  0  0  0  0
   19.3421    2.9282    9.5633 C   0  0  0  0  0  0  0  0  0  0  0  0
   20.1007    2.2700   10.5034 C   0  0  0  0  0  0  0  0  0  0  0  0
  1  2  1  0
  1  3  1  0
  3  4  1  0
  4  5  1  6
  6  2  1  6
  4  7  1  0
  6  7  1  0
  6  8  1  0
  8  9  1  0
  8 10  1  6
 10 11  1  0
 12 11  1  1
 12 13  1  0
 13 14  1  0
 12 15  1  0
 15 16  1  0
  9 17  1  6
 16 18  1  6
  9 19  1  0
 15 20  1  1
  7 21  1  6
 19 21  1  0
 14 22  1  6
 22 23  1  0
 11 24  2  0
 14 25  1  0
 20 25  1  0
 18 26  1  0
 16 27  1  0
 27 28  1  6
 26 29  1  0
 27 30  1  0
 29 30  1  0
M  END
$$$$
61
     RDKit          3D

 30 33  0  0  0  0  0  0  0  0999 V2000
   18.8579    1.8829    4.7669 C   0  0  0  0  0  0  0  0  0  0  0  0
   18.6818    1.4842    5.9171 C   0  0  2  0  0  0  0  0  0  0  0  0
   18.1017    0.2248    6.2468 C   0  0  1  0  0  0  0  0  0  0  0  0
   17.8160   -0.2171    7.5817 N   0  0  0  0  0  0  0  0  0  0  0  0
   18.9980    2.3385    7.0711 C   0  0  0  0  0  0  0  0  0  0  0  0
   17.4684   -0.8466    5.3240 C   0  0  0  0  0  0  0  0  0  0  0  0
   18.4773    0.9046    3.6128 C   0  0  0  0  0  0  0  0  0  0  0  0
   17.8940   -0.3526    3.9481 C   0  0  0  0  0  0  0  0  0  0  0  0
   18.7582    1.9174    8.3377 C   0  0  0  0  0  0  0  0  0  0  0  0
   18.1282    0.5853    8.5898 C   0  0  2  0  0  0  0  0  0  0  0  0
   18.0119    0.1255    9.9642 N   0  0  0  0  0  0  0  0  0  0  0  0
   16.7600   -0.3074   10.2594 C   0  0  0  0  0  0  0  0  0  0  0  0
   19.1409   -0.3240   10.7167 C   0  0  1  0  0  0  0  0  0  0  0  0
   18.8730   -0.4537   11.9868 O   0  0  0  0  0  0  0  0  0  0  0  0
   18.8125    0.6596   12.7866 C   0  0  2  0  0  0  0  0  0  0  0  0
   18.5191    0.3653   14.1123 C   0  0  1  0  0  0  0  0  0  0  0  0
   18.9341    1.8939   12.2710 C   0  0  0  0  0  0  0  0  0  0  0  0
   18.5463   -0.9716   14.6917 C   0  0  0  0  0  0  0  0  0  0  0  0
   18.5181    3.0508   13.0565 C   0  0  1  0  0  0  0  0  0  0  0  0
   18.2247   -1.0627   16.1648 C   0  0  1  0  0  0  0  0  0  0  0  0
   18.3042    2.7858   14.4379 C   0  0  0  0  0  0  0  0  0  0  0  0
   18.7403    4.3735   12.4489 C   0  0  0  0  0  0  0  0  0  0  0  0
   18.2552   -2.2988   16.7572 F   0  0  0  0  0  0  0  0  0  0  0  0
   17.9799    0.0537   16.8771 C   0  0  0  0  0  0  0  0  0  0  0  0
   19.6239    4.7856   12.0451 O   0  0  0  0  0  0  0  0  0  0  0  0
   17.9221    1.2506   16.1507 C   0  0  0  0  0  0  0  0  0  0  0  0
   17.6393    5.1292   12.6969 O   0  0  0  0  0  0  0  0  0  0  0  0
   18.3129    1.4190   14.9302 C   0  0  1  0  0  0  0  0  0  0  0  0
   19.8715   -1.5454   10.1149 C   0  0  0  0  0  0  0  0  0  0  0  0
   21.0958   -1.3202    9.6267 O   0  0  0  0  0  0  0  0  0  0  0  0
  2  1  1  6
  2  3  1  0
  3  4  1  0
  2  5  1  0
  3  6  1  6
  1  7  1  0
  6  8  1  0
  7  8  1  0
  5  9  1  0
  4 10  1  0
  9 10  1  0
 10 11  1  1
 11 12  1  0
 11 13  1  0
 13 14  1  0
 15 14  1  6
 15 16  1  0
 15 17  1  0
 16 18  1  1
 17 19  1  0
 18 20  1  0
 19 21  1  0
 19 22  1  1
 20 23  1  1
 20 24  1  0
 22 25  2  0
 24 26  1  0
 22 27  1  0
 16 28  1  0
 28 21  1  6
 26 28  1  0
 13 29  1  6
 29 30  1  0
M  END
$$$$
62
     RDKit          3D

 30 34  0  0  0  0  0  0  0  0999 V2000
   18.7669   -2.0629   15.8816 C   0  0  0  0  0  0  0  0  0  0  0  0
   18.2939   -1.4542   16.9168 C   0  0  0  0  0  0  0  0  0  0  0  0
   18.5140   -1.4731   14.6004 C   0  0  2  0  0  0  0  0  0  0  0  0
   18.9159   -1.9595   13.4056 C   0  0  0  0  0  0  0  0  0  0  0  0
   18.0068   -0.1594   14.8235 C   0  0  0  0  0  0  0  0  0  0  0  0
   17.7593    0.6187   13.5942 C   0  0  2  0  0  0  0  0  0  0  0  0
   18.6507   -1.1781   12.2583 C   0  0  0  0  0  0  0  0  0  0  0  0
   17.6155    0.6310   15.9694 C   0  0  0  0  0  0  0  0  0  0  0  0
   17.9199   -0.1899   17.1646 C   0  0  0  0  0  0  0  0  0  0  0  0
   18.9853   -1.6649   10.9655 N   0  0  0  0  0  0  0  0  0  0  0  0
   17.0984    1.8218   13.6510 O   0  0  0  0  0  0  0  0  0  0  0  0
   19.4803   -2.8034   10.7367 C   0  0  0  0  0  0  0  0  0  0  0  0
   17.8788    2.8401   13.1992 C   0  0  0  0  0  0  0  0  0  0  0  0
   17.8292    2.9406   11.7625 C   0  0  1  0  0  0  0  0  0  0  0  0
   18.0257    4.1555   11.1356 C   0  0  0  0  0  0  0  0  0  0  0  0
   18.0794    4.2051    9.7078 C   0  0  0  0  0  0  0  0  0  0  0  0
   19.2606   -0.9028    9.7784 C   0  0  2  0  0  0  0  0  0  0  0  0
   17.1628    5.2151   11.6884 C   0  0  0  0  0  0  0  0  0  0  0  0
   17.7934    1.6713   10.9739 C   0  0  0  0  0  0  0  0  0  0  0  0
   19.2439   -1.4541    8.6324 N   0  0  0  0  0  0  0  0  0  0  0  0
   17.7991    1.4238    9.8015 C   0  0  0  0  0  0  0  0  0  0  0  0
   17.9361   -1.7852    8.1375 C   0  0  0  0  0  0  0  0  0  0  0  0
   19.4109    4.7686   11.6947 C   0  0  0  0  0  0  0  0  0  0  0  0
   18.0301    0.1163   12.2762 C   0  0  1  0  0  0  0  0  0  0  0  0
   19.6903   -2.9373    9.1838 C   0  0  0  0  0  0  0  0  0  0  0  0
   17.5701    0.6293   11.0557 N   0  0  0  0  0  0  0  0  0  0  0  0
   17.4110   -0.5504    7.5506 C   0  0  0  0  0  0  0  0  0  0  0  0
   18.3569    0.3308    6.9514 O   0  0  0  0  0  0  0  0  0  0  0  0
   20.6419   -0.1928   10.0615 C   0  0  0  0  0  0  0  0  0  0  0  0
   18.1251    1.0780    5.8086 C   0  0  0  0  0  0  0  0  0  0  0  0
  1  2  1  0
  3  1  1  1
  3  4  1  0
  3  5  1  0
  5  6  1  0
  4  7  1  0
  5  8  1  0
  2  9  1  0
  8  9  1  0
  7 10  1  0
  6 11  1  6
 10 12  1  0
 11 13  1  0
 13 14  1  0
 14 15  1  6
 15 16  1  0
 10 17  1  0
 15 18  1  0
 14 19  1  0
 17 20  1  0
 19 21  2  0
 20 22  1  0
 15 23  1  0
  6 24  1  0
 24  7  1  1
 12 25  1  0
 20 25  1  0
 19 26  1  0
 21 26  1  0
 24 26  1  0
 22 27  1  0
 27 28  1  0
 17 29  1  1
 28 30  1  0
M  END
$$$$
63
     RDKit          3D

 30 33  0  0  0  0  0  0  0  0999 V2000
   18.8579    1.8829    4.7669 C   0  0  0  0  0  0  0  0  0  0  0  0
   18.6818    1.4842    5.9171 C   0  0  2  0  0  0  0  0  0  0  0  0
   18.1017    0.2248    6.2468 C   0  0  1  0  0  0  0  0  0  0  0  0
   17.8160   -0.2171    7.5817 N   0  0  0  0  0  0  0  0  0  0  0  0
   18.9980    2.3385    7.0711 C   0  0  0  0  0  0  0  0  0  0  0  0
   17.4684   -0.8466    5.3240 C   0  0  0  0  0  0  0  0  0  0  0  0
   18.4773    0.9046    3.6128 C   0  0  0  0  0  0  0  0  0  0  0  0
   17.8940   -0.3526    3.9481 C   0  0  0  0  0  0  0  0  0  0  0  0
   18.7582    1.9174    8.3377 C   0  0  0  0  0  0  0  0  0  0  0  0
   18.1282    0.5853    8.5898 C   0  0  2  0  0  0  0  0  0  0  0  0
   18.0119    0.1255    9.9642 N   0  0  0  0  0  0  0  0  0  0  0  0
   16.7600   -0.3074   10.2594 C   0  0  0  0  0  0  0  0  0  0  0  0
   19.1409   -0.3240   10.7167 C   0  0  0  0  0  0  0  0  0  0  0  0
   18.8730   -0.4537   11.9868 O   0  0  0  0  0  0  0  0  0  0  0  0
   18.8125    0.6596   12.7866 C   0  0  2  0  0  0  0  0  0  0  0  0
   18.5191    0.3653   14.1123 C   0  0  1  0  0  0  0  0  0  0  0  0
   18.9341    1.8939   12.2710 C   0  0  0  0  0  0  0  0  0  0  0  0
   18.5463   -0.9716   14.6917 C   0  0  0  0  0  0  0  0  0  0  0  0
   18.5181    3.0508   13.0565 C   0  0  1  0  0  0  0  0  0  0  0  0
   18.2247   -1.0627   16.1648 C   0  0  1  0  0  0  0  0  0  0  0  0
   18.3042    2.7858   14.4379 C   0  0  0  0  0  0  0  0  0  0  0  0
   18.7403    4.3735   12.4489 C   0  0  0  0  0  0  0  0  0  0  0  0
   18.2552   -2.2988   16.7572 F   0  0  0  0  0  0  0  0  0  0  0  0
   17.9799    0.0537   16.8771 C   0  0  0  0  0  0  0  0  0  0  0  0
   18.2502    1.4572   14.9312 C   0  0  0  0  0  0  0  0  0  0  0  0
   20.3749   -0.6980   10.1765 C   0  0  0  0  0  0  0  0  0  0  0  0
   17.9474    1.3477   16.2484 C   0  0  0  0  0  0  0  0  0  0  0  0
   20.7172   -1.8112    9.7254 N   0  0  0  0  0  0  0  0  0  0  0  0
   18.2318    5.3824   13.1172 O   0  0  0  0  0  0  0  0  0  0  0  0
   19.1774    4.6918   11.3331 O   0  0  0  0  0  0  0  0  0  0  0  0
  2  1  1  6
  2  3  1  0
  3  4  1  0
  2  5  1  0
  3  6  1  6
  1  7  1  0
  6  8  1  0
  7  8  1  0
  5  9  1  0
  4 10  1  0
  9 10  1  0
 10 11  1  1
 11 12  1  0
 11 13  1  0
 13 14  1  0
 15 14  1  6
 15 16  1  0
 15 17  1  0
 16 18  1  1
 17 19  1  0
 18 20  1  0
 19 21  1  0
 19 22  1  1
 20 23  1  1
 20 24  1  0
 16 25  1  0
 21 25  1  0
 13 26  2  3
 24 27  1  0
 25 27  1  0
 26 28  1  0
 22 29  1  0
 22 30  2  0
M  END
$$$$
64
     RDKit          3D

 31 36  0  0  0  0  0  0  0  0999 V2000
   18.7669   -2.0629   15.8816 C   0  0  0  0  0  0  0  0  0  0  0  0
   18.2939   -1.4542   16.9168 C   0  0  0  0  0  0  0  0  0  0  0  0
   18.5140   -1.4731   14.6004 C   0  0  2  0  0  0  0  0  0  0  0  0
   18.9159   -1.9595   13.4056 C   0  0  0  0  0  0  0  0  0  0  0  0
   18.0068   -0.1594   14.8235 C   0  0  0  0  0  0  0  0  0  0  0  0
   17.7593    0.6187   13.5942 C   0  0  2  0  0  0  0  0  0  0  0  0
   18.6507   -1.1781   12.2583 C   0  0  0  0  0  0  0  0  0  0  0  0
   17.6155    0.6310   15.9694 C   0  0  0  0  0  0  0  0  0  0  0  0
   17.9199   -0.1899   17.1646 C   0  0  0  0  0  0  0  0  0  0  0  0
   18.9853   -1.6649   10.9655 N   0  0  0  0  0  0  0  0  0  0  0  0
   17.0984    1.8218   13.6510 O   0  0  0  0  0  0  0  0  0  0  0  0
   19.4803   -2.8034   10.7367 C   0  0  0  0  0  0  0  0  0  0  0  0
   17.8788    2.8401   13.1992 C   0  0  0  0  0  0  0  0  0  0  0  0
   17.8292    2.9406   11.7625 C   0  0  1  0  0  0  0  0  0  0  0  0
   18.0257    4.1555   11.1356 C   0  0  0  0  0  0  0  0  0  0  0  0
   18.0794    4.2051    9.7078 C   0  0  0  0  0  0  0  0  0  0  0  0
   19.2606   -0.9028    9.7784 C   0  0  2  0  0  0  0  0  0  0  0  0
   17.1628    5.2151   11.6884 C   0  0  0  0  0  0  0  0  0  0  0  0
   17.7934    1.6713   10.9739 C   0  0  0  0  0  0  0  0  0  0  0  0
   19.2439   -1.4541    8.6324 N   0  0  0  0  0  0  0  0  0  0  0  0
   17.7991    1.4238    9.8015 C   0  0  0  0  0  0  0  0  0  0  0  0
   17.9361   -1.7852    8.1375 C   0  0  0  0  0  0  0  0  0  0  0  0
   19.4109    4.7686   11.6947 C   0  0  0  0  0  0  0  0  0  0  0  0
   18.5647   -3.8642   11.0713 O   0  0  0  0  0  0  0  0  0  0  0  0
   20.7062   -3.1889   10.4605 N   0  0  0  0  0  0  0  0  0  0  0  0
   20.4004    0.2133    9.6797 C   0  0  0  0  0  0  0  0  0  0  0  0
   18.0602    0.1885   12.2548 C   0  0  2  0  0  0  0  0  0  0  0  0
   17.6428    2.7483    9.1020 C   0  0  0  0  0  0  0  0  0  0  0  0
   21.3355    0.2071   10.6505 O   0  0  0  0  0  0  0  0  0  0  0  0
   17.9178    0.1315    9.0584 C   0  0  2  0  0  0  0  0  0  0  0  0
   17.1986   -0.5071    8.3196 C   0  0  0  0  0  0  0  0  0  0  0  0
  1  2  1  0
  3  1  1  1
  3  4  1  0
  3  5  1  0
  5  6  1  0
  4  7  1  0
  5  8  1  0
  2  9  1  0
  8  9  1  0
  7 10  1  0
  6 11  1  6
 10 12  1  0
 11 13  1  0
 14 13  1  1
 14 15  1  0
 15 16  1  0
 10 17  1  0
 15 18  1  0
 14 19  1  0
 17 20  1  0
 19 21  2  0
 20 22  1  0
 15 23  1  0
 12 24  2  0
 12 25  1  0
 17 26  1  1
  6 27  1  0
 27  7  1  1
 19 27  1  0
 16 28  1  0
 21 28  1  0
 26 29  1  0
 17 30  1  0
 21 30  1  0
 22 31  1  0
 30 31  1  1
M  END
$$$$
65
     RDKit          3D

 31 35  0  0  0  0  0  0  0  0999 V2000
   19.0881   -2.2270   16.7779 C   0  0  0  0  0  0  0  0  0  0  0  0
   18.6073   -1.2451   17.5844 C   0  0  0  0  0  0  0  0  0  0  0  0
   18.7304   -2.1944   15.4059 C   0  0  0  0  0  0  0  0  0  0  0  0
   18.2671   -0.8589   14.9691 C   0  0  0  0  0  0  0  0  0  0  0  0
   17.9523   -0.6560   13.5714 C   0  0  2  0  0  0  0  0  0  0  0  0
   17.3600    0.7213   13.2334 C   0  0  0  0  0  0  0  0  0  0  0  0
   17.8466   -1.3151   12.5949 N   0  0  0  0  0  0  0  0  0  0  0  0
   17.6893   -0.0562   16.0113 C   0  0  0  0  0  0  0  0  0  0  0  0
   17.1646    0.6800   11.8738 N   0  0  0  0  0  0  0  0  0  0  0  0
   17.6002   -0.5709   11.3996 C   0  0  2  0  0  0  0  0  0  0  0  0
   16.7433    1.8266   11.0388 C   0  0  0  0  0  0  0  0  0  0  0  0
   17.9412   -0.1237   17.1213 C   0  0  0  0  0  0  0  0  0  0  0  0
   17.3323    1.7602    9.7258 O   0  0  0  0  0  0  0  0  0  0  0  0
   18.4353    2.2520    9.5931 C   0  0  1  0  0  0  0  0  0  0  0  0
   19.2610    1.6377    8.5389 C   0  0  0  0  0  0  0  0  0  0  0  0
   17.3991   -1.0279   10.0870 C   0  0  0  0  0  0  0  0  0  0  0  0
   18.8072    3.5117   10.0503 C   0  0  0  0  0  0  0  0  0  0  0  0
   17.8935    4.5786    9.8463 C   0  0  0  0  0  0  0  0  0  0  0  0
   18.9313    1.7002    7.2223 C   0  0  0  0  0  0  0  0  0  0  0  0
   18.5588   -1.6034    9.5902 N   0  0  0  0  0  0  0  0  0  0  0  0
   17.2562    5.1625   10.7721 C   0  0  0  0  0  0  0  0  0  0  0  0
   19.0151   -2.6784   10.1375 C   0  0  0  0  0  0  0  0  0  0  0  0
   18.3650   -1.9348    8.0890 C   0  0  1  0  0  0  0  0  0  0  0  0
   18.6305    0.4831    6.4590 C   0  0  0  0  0  0  0  0  0  0  0  0
   16.3363   -1.0432    9.4875 O   0  0  0  0  0  0  0  0  0  0  0  0
   19.0031   -0.8451    7.2297 C   0  0  0  0  0  0  0  0  0  0  0  0
   18.0334    5.5729   11.9701 C   0  0  0  0  0  0  0  0  0  0  0  0
   19.2101    4.7779   12.2119 C   0  0  0  0  0  0  0  0  0  0  0  0
   19.5432    3.6141   11.3767 C   0  0  0  0  0  0  0  0  0  0  0  0
   18.7249   -3.9386    9.6536 C   0  0  0  0  0  0  0  0  0  0  0  0
   18.4542   -3.5139    8.1134 C   0  0  0  0  0  0  0  0  0  0  0  0
  1  2  1  0
  1  3  1  0
  3  4  1  0
  5  4  1  1
  5  6  1  0
  5  7  1  0
  4  8  1  0
  6  9  1  0
 10  7  1  1
  9 10  1  0
  9 11  1  0
  2 12  1  0
  8 12  1  0
 11 13  1  0
 13 14  1  0
 14 15  1  0
 10 16  1  0
 14 17  1  6
 17 18  1  0
 15 19  1  0
 16 20  1  0
 18 21  1  0
 20 22  1  0
 20 23  1  0
 19 24  1  0
 16 25  2  0
 23 26  1  6
 24 26  1  0
 21 27  1  0
 27 28  1  0
 17 29  1  0
 28 29  1  0
 22 30  1  0
 23 31  1  0
 30 31  1  0
M  END
$$$$
66
     RDKit          3D

 31 33  0  0  0  0  0  0  0  0999 V2000
   20.8522    0.3905   10.7967 O   0  0  0  0  0  0  0  0  0  0  0  0
   19.8548   -0.3149   10.2966 C   0  0  2  0  0  0  0  0  0  0  0  0
   18.5933    0.3763   10.5953 C   0  0  1  0  0  0  0  0  0  0  0  0
   19.8129   -1.6972   10.9343 C   0  0  1  0  0  0  0  0  0  0  0  0
   18.5805    1.6560   10.0649 N   0  0  0  0  0  0  0  0  0  0  0  0
   17.9136    2.6817   10.8110 C   0  0  0  0  0  0  0  0  0  0  0  0
   18.4967   -1.7589   11.3653 C   0  0  2  0  0  0  0  0  0  0  0  0
   19.2919    2.2404    9.0332 C   0  0  1  0  0  0  0  0  0  0  0  0
   18.0200    3.9363   10.2891 C   0  0  2  0  0  0  0  0  0  0  0  0
   17.1479    2.4730   11.9901 O   0  0  0  0  0  0  0  0  0  0  0  0
   17.7735   -0.8647   10.4113 C   0  0  2  0  0  0  0  0  0  0  0  0
   18.2693   -1.4745   12.6883 O   0  0  0  0  0  0  0  0  0  0  0  0
   19.1843   -1.0026   13.5775 C   0  0  0  0  0  0  0  0  0  0  0  0
   20.5333   -2.6457   10.0919 O   0  0  0  0  0  0  0  0  0  0  0  0
   17.8521   -1.0699    8.9504 O   0  0  0  0  0  0  0  0  0  0  0  0
   17.4607    5.1047   10.8234 C   0  0  0  0  0  0  0  0  0  0  0  0
   17.1967    5.2914   12.1482 C   0  0  0  0  0  0  0  0  0  0  0  0
   19.5587    1.5385    8.0010 N   0  0  0  0  0  0  0  0  0  0  0  0
   18.7042    3.8201    8.9501 S   0  0  0  0  0  0  0  0  0  0  0  0
   18.3321    5.6476   12.8872 C   0  0  0  0  0  0  0  0  0  0  0  0
   19.2958    4.7414   13.2666 N   0  0  0  0  0  0  0  0  0  0  0  0
   16.6787   -0.7931    8.3074 C   0  0  0  0  0  0  0  0  0  0  0  0
   18.6915   -0.9776   14.9920 C   0  0  0  0  0  0  0  0  0  0  0  0
   18.5332    6.8675   13.2109 O   0  0  0  0  0  0  0  0  0  0  0  0
   20.2454    5.0202   14.2377 C   0  0  0  0  0  0  0  0  0  0  0  0
   16.8610   -0.1671    6.9420 C   0  0  0  0  0  0  0  0  0  0  0  0
   18.8655   -2.1106   15.7735 C   0  0  0  0  0  0  0  0  0  0  0  0
   18.5243   -1.9310   17.0291 C   0  0  0  0  0  0  0  0  0  0  0  0
   18.0843   -0.7239   17.3502 C   0  0  0  0  0  0  0  0  0  0  0  0
   18.3200    0.3106   15.2896 C   0  0  0  0  0  0  0  0  0  0  0  0
   17.9241    0.4387   16.6817 C   0  0  0  0  0  0  0  0  0  0  0  0
  2  1  1  1
  2  3  1  0
  2  4  1  0
  3  5  1  6
  5  6  1  0
  4  7  1  0
  5  8  1  0
  6  9  1  0
  6 10  1  0
  3 11  1  0
  7 11  1  0
  7 12  1  1
 12 13  1  0
  4 14  1  6
 11 15  1  6
  9 16  1  6
 16 17  1  0
  8 18  1  6
  8 19  1  0
  9 19  1  0
 17 20  1  0
 20 21  1  0
 15 22  1  0
 13 23  1  0
 20 24  2  0
 21 25  1  0
 22 26  1  0
 23 27  1  0
 27 28  1  0
 28 29  1  0
 23 30  1  0
 29 31  1  0
 30 31  1  0
M  END
$$$$
67
     RDKit          3D

 31 34  0  0  0  0  0  0  0  0999 V2000
   18.8579    1.8829    4.7669 C   0  0  0  0  0  0  0  0  0  0  0  0
   18.6818    1.4842    5.9171 C   0  0  2  0  0  0  0  0  0  0  0  0
   18.1017    0.2248    6.2468 C   0  0  1  0  0  0  0  0  0  0  0  0
   17.8160   -0.2171    7.5817 N   0  0  0  0  0  0  0  0  0  0  0  0
   18.9980    2.3385    7.0711 C   0  0  0  0  0  0  0  0  0  0  0  0
   17.4684   -0.8466    5.3240 C   0  0  0  0  0  0  0  0  0  0  0  0
   18.4773    0.9046    3.6128 C   0  0  0  0  0  0  0  0  0  0  0  0
   17.8940   -0.3526    3.9481 C   0  0  0  0  0  0  0  0  0  0  0  0
   18.7582    1.9174    8.3377 C   0  0  0  0  0  0  0  0  0  0  0  0
   18.1282    0.5853    8.5898 C   0  0  2  0  0  0  0  0  0  0  0  0
   18.0119    0.1255    9.9642 N   0  0  0  0  0  0  0  0  0  0  0  0
   16.7600   -0.3074   10.2594 C   0  0  0  0  0  0  0  0  0  0  0  0
   19.1409   -0.3240   10.7167 C   0  0  0  0  0  0  0  0  0  0  0  0
   18.8730   -0.4537   11.9868 O   0  0  0  0  0  0  0  0  0  0  0  0
   18.8125    0.6596   12.7866 C   0  0  2  0  0  0  0  0  0  0  0  0
   18.5191    0.3653   14.1123 C   0  0  1  0  0  0  0  0  0  0  0  0
   18.9341    1.8939   12.2710 C   0  0  0  0  0  0  0  0  0  0  0  0
   18.5463   -0.9716   14.6917 C   0  0  0  0  0  0  0  0  0  0  0  0
   18.5181    3.0508   13.0565 C   0  0  1  0  0  0  0  0  0  0  0  0
   18.2247   -1.0627   16.1648 C   0  0  1  0  0  0  0  0  0  0  0  0
   18.3042    2.7858   14.4379 C   0  0  0  0  0  0  0  0  0  0  0  0
   18.7403    4.3735   12.4489 C   0  0  0  0  0  0  0  0  0  0  0  0
   18.2552   -2.2988   16.7572 F   0  0  0  0  0  0  0  0  0  0  0  0
   17.9799    0.0537   16.8771 C   0  0  2  0  0  0  0  0  0  0  0  0
   18.2502    1.4572   14.9312 C   0  0  0  0  0  0  0  0  0  0  0  0
   20.3749   -0.6980   10.1765 C   0  0  0  0  0  0  0  0  0  0  0  0
   17.6317   -0.0382   18.3325 C   0  0  0  0  0  0  0  0  0  0  0  0
   17.8563    1.4244   16.3389 C   0  0  0  0  0  0  0  0  0  0  0  0
   18.4958    5.3973   13.2125 O   0  0  0  0  0  0  0  0  0  0  0  0
   21.4575   -0.3395   10.4714 O   0  0  0  0  0  0  0  0  0  0  0  0
   18.9622    4.6566   11.2999 O   0  0  0  0  0  0  0  0  0  0  0  0
  2  1  1  6
  2  3  1  0
  3  4  1  0
  2  5  1  0
  3  6  1  6
  1  7  1  0
  6  8  1  0
  7  8  1  0
  5  9  1  0
  4 10  1  0
  9 10  1  0
 10 11  1  1
 11 12  1  0
 11 13  1  0
 13 14  1  0
 15 14  1  6
 15 16  1  0
 15 17  1  0
 16 18  1  1
 17 19  1  0
 18 20  1  0
 19 21  1  0
 19 22  1  1
 20 23  1  1
 20 24  1  0
 16 25  1  0
 21 25  1  0
 13 26  2  3
 24 27  1  6
 24 28  1  0
 25 28  1  0
 22 29  1  0
 26 30  1  0
 22 31  2  0
M  END
$$$$
68
     RDKit          3D

 31 34  0  0  0  0  0  0  0  0999 V2000
   18.8579    1.8829    4.7669 C   0  0  0  0  0  0  0  0  0  0  0  0
   18.6818    1.4842    5.9171 C   0  0  2  0  0  0  0  0  0  0  0  0
   18.1017    0.2248    6.2468 C   0  0  1  0  0  0  0  0  0  0  0  0
   17.8160   -0.2171    7.5817 N   0  0  0  0  0  0  0  0  0  0  0  0
   18.9980    2.3385    7.0711 C   0  0  0  0  0  0  0  0  0  0  0  0
   17.4684   -0.8466    5.3240 C   0  0  0  0  0  0  0  0  0  0  0  0
   18.4773    0.9046    3.6128 C   0  0  0  0  0  0  0  0  0  0  0  0
   17.8940   -0.3526    3.9481 C   0  0  0  0  0  0  0  0  0  0  0  0
   18.7582    1.9174    8.3377 C   0  0  0  0  0  0  0  0  0  0  0  0
   19.0210    2.6538    9.4681 N   0  0  0  0  0  0  0  0  0  0  0  0
   18.1404    0.5893    8.6184 C   0  0  2  0  0  0  0  0  0  0  0  0
   18.3989    3.2753   10.3854 C   0  0  0  0  0  0  0  0  0  0  0  0
   18.0204    0.1389   10.0219 N   0  0  0  0  0  0  0  0  0  0  0  0
   16.8894   -0.2021   10.3494 C   0  0  0  0  0  0  0  0  0  0  0  0
   19.2385   -0.0754   10.7658 C   0  0  0  0  0  0  0  0  0  0  0  0
   15.9168   -0.2447    9.8160 O   0  0  0  0  0  0  0  0  0  0  0  0
   17.1396    3.4423   10.2361 O   0  0  0  0  0  0  0  0  0  0  0  0
   16.6597   -0.4713   11.9048 C   0  0  0  0  0  0  0  0  0  0  0  0
   18.9198    3.9600   11.5657 C   0  0  0  0  0  0  0  0  0  0  0  0
   19.4703    5.1742   11.3225 C   0  0  0  0  0  0  0  0  0  0  0  0
   20.4228   -0.1843   10.5726 C   0  0  0  0  0  0  0  0  0  0  0  0
   21.0309   -0.7592    9.3629 O   0  0  0  0  0  0  0  0  0  0  0  0
   18.5987   -0.3359   12.2064 C   0  0  1  0  0  0  0  0  0  0  0  0
   18.8321   -1.5584   12.8875 C   0  0  2  0  0  0  0  0  0  0  0  0
   18.7839    0.8456   13.1974 C   0  0  0  0  0  0  0  0  0  0  0  0
   19.1404   -2.7308   12.0948 O   0  0  0  0  0  0  0  0  0  0  0  0
   18.6330   -1.7473   14.2384 C   0  0  1  0  0  0  0  0  0  0  0  0
   18.8865   -2.9268   14.9563 O   0  0  0  0  0  0  0  0  0  0  0  0
   18.6696    0.7488   14.5238 C   0  0  0  0  0  0  0  0  0  0  0  0
   18.8878   -0.5223   15.1292 C   0  0  1  0  0  0  0  0  0  0  0  0
   18.7379   -0.5408   16.6776 C   0  0  0  0  0  0  0  0  0  0  0  0
  2  1  1  6
  2  3  1  0
  3  4  1  0
  2  5  1  0
  3  6  1  6
  1  7  1  0
  6  8  1  0
  7  8  1  0
  5  9  1  0
  9 10  1  0
  4 11  1  0
  9 11  1  0
 10 12  1  0
 11 13  1  1
 13 14  1  0
 13 15  1  0
 14 16  2  0
 12 17  2  0
 14 18  1  0
 12 19  1  0
 19 20  1  0
 15 21  2  3
 21 22  1  0
 15 23  1  0
 23 18  1  6
 23 24  1  0
 23 25  1  0
 24 26  1  6
 24 27  1  0
 27 28  1  1
 25 29  1  0
 27 30  1  0
 29 30  1  0
 30 31  1  1
M  END
$$$$
69
     RDKit          3D

 31 34  0  0  0  0  0  0  0  0999 V2000
   18.8579    1.8829    4.7669 C   0  0  0  0  0  0  0  0  0  0  0  0
   18.6818    1.4842    5.9171 C   0  0  2  0  0  0  0  0  0  0  0  0
   18.1017    0.2248    6.2468 C   0  0  1  0  0  0  0  0  0  0  0  0
   17.8160   -0.2171    7.5817 N   0  0  0  0  0  0  0  0  0  0  0  0
   18.9980    2.3385    7.0711 C   0  0  0  0  0  0  0  0  0  0  0  0
   17.4684   -0.8466    5.3240 C   0  0  0  0  0  0  0  0  0  0  0  0
   18.4773    0.9046    3.6128 C   0  0  0  0  0  0  0  0  0  0  0  0
   17.8940   -0.3526    3.9481 C   0  0  0  0  0  0  0  0  0  0  0  0
   18.7582    1.9174    8.3377 C   0  0  0  0  0  0  0  0  0  0  0  0
   18.1282    0.5853    8.5898 C   0  0  2  0  0  0  0  0  0  0  0  0
   18.0119    0.1255    9.9642 N   0  0  0  0  0  0  0  0  0  0  0  0
   16.7600   -0.3074   10.2594 C   0  0  0  0  0  0  0  0  0  0  0  0
   19.1409   -0.3240   10.7167 C   0  0  1  0  0  0  0  0  0  0  0  0
   18.8730   -0.4537   11.9868 O   0  0  0  0  0  0  0  0  0  0  0  0
   18.8125    0.6596   12.7866 C   0  0  2  0  0  0  0  0  0  0  0  0
   18.5191    0.3653   14.1123 C   0  0  1  0  0  0  0  0  0  0  0  0
   18.9341    1.8939   12.2710 C   0  0  0  0  0  0  0  0  0  0  0  0
   18.5463   -0.9716   14.6917 C   0  0  0  0  0  0  0  0  0  0  0  0
   18.5181    3.0508   13.0565 C   0  0  1  0  0  0  0  0  0  0  0  0
   18.2247   -1.0627   16.1648 C   0  0  1  0  0  0  0  0  0  0  0  0
   18.3042    2.7858   14.4379 C   0  0  0  0  0  0  0  0  0  0  0  0
   18.7403    4.3735   12.4489 C   0  0  0  0  0  0  0  0  0  0  0  0
   18.2552   -2.2988   16.7572 F   0  0  0  0  0  0  0  0  0  0  0  0
   17.9799    0.0537   16.8771 C   0  0  0  0  0  0  0  0  0  0  0  0
   18.2502    1.4572   14.9312 C   0  0  0  0  0  0  0  0  0  0  0  0
   18.6819    5.3795   13.2620 O   0  0  0  0  0  0  0  0  0  0  0  0
   18.7867    4.5382   11.2584 N   0  0  0  0  0  0  0  0  0  0  0  0
   17.9434    1.3467   16.2958 C   0  0  0  0  0  0  0  0  0  0  0  0
   20.3402   -0.7876   10.1065 C   0  0  0  0  0  0  0  0  0  0  0  0
   21.4306   -0.0733   10.3719 O   0  0  0  0  0  0  0  0  0  0  0  0
   18.5597    5.7642   10.5315 C   0  0  0  0  0  0  0  0  0  0  0  0
  2  1  1  6
  2  3  1  0
  3  4  1  0
  2  5  1  0
  3  6  1  6
  1  7  1  0
  6  8  1  0
  7  8  1  0
  5  9  1  0
  4 10  1  0
  9 10  1  0
 10 11  1  1
 11 12  1  0
 11 13  1  0
 13 14  1  0
 15 14  1  6
 15 16  1  0
 15 17  1  0
 16 18  1  1
 17 19  1  0
 18 20  1  0
 19 21  1  0
 19 22  1  1
 20 23  1  1
 20 24  1  0
 16 25  1  0
 21 25  1  0
 22 26  2  0
 22 27  1  0
 24 28  1  0
 25 28  1  0
 13 29  1  6
 29 30  1  0
 27 31  1  0
M  END
$$$$
7
     RDKit          3D

 14 15  0  0  0  0  0  0  0  0999 V2000
   18.5204   -1.4017   17.4816 C   0  0  1  0  0  0  0  0  0  0  0  0
   17.6865   -0.3688   17.4701 C   0  0  1  0  0  0  0  0  0  0  0  0
   17.7211    0.6145   18.4229 C   0  0  0  0  0  0  0  0  0  0  0  0
   17.5651    0.3706   16.1235 C   0  0  2  0  0  0  0  0  0  0  0  0
   18.6837   -2.1280   18.6142 F   0  0  0  0  0  0  0  0  0  0  0  0
   19.0870   -2.0124   16.3789 C   0  0  0  0  0  0  0  0  0  0  0  0
   17.0745    1.8644   18.2612 C   0  0  0  0  0  0  0  0  0  0  0  0
   16.7979    2.3891   16.9922 C   0  0  0  0  0  0  0  0  0  0  0  0
   17.0058    1.5535   15.8591 C   0  0  0  0  0  0  0  0  0  0  0  0
   18.6514   -1.6632   15.0807 C   0  0  0  0  0  0  0  0  0  0  0  0
   17.9813   -0.4873   14.9894 C   0  0  0  0  0  0  0  0  0  0  0  0
   17.6230   -0.0770   13.6515 C   0  0  0  0  0  0  0  0  0  0  0  0
   17.1473    1.2191   13.3867 O   0  0  0  0  0  0  0  0  0  0  0  0
   17.5616   -0.7968   12.5805 O   0  0  0  0  0  0  0  0  0  0  0  0
  1  2  1  0
  2  3  1  1
  2  4  1  0
  1  5  1  6
  1  6  1  0
  3  7  1  0
  7  8  1  0
  4  9  1  6
  8  9  1  0
  6 10  1  0
  4 11  1  0
 10 11  1  0
 11 12  1  0
 12 13  1  0
 12 14  2  0
M  END
$$$$
70
     RDKit          3D

 31 35  0  0  0  0  0  0  0  0999 V2000
   18.9584    1.9326    5.2255 C   0  0  0  0  0  0  0  0  0  0  0  0
   18.3617    1.0045    4.5806 C   0  0  0  0  0  0  0  0  0  0  0  0
   18.0870    0.0008    5.4624 C   0  0  0  0  0  0  0  0  0  0  0  0
   19.1712    2.0681    6.6078 C   0  0  0  0  0  0  0  0  0  0  0  0
   18.0946   -0.0585    6.7987 C   0  0  2  0  0  0  0  0  0  0  0  0
   18.7023    1.0425    7.3315 C   0  0  0  0  0  0  0  0  0  0  0  0
   18.6764    0.8725    8.7836 C   0  0  2  0  0  0  0  0  0  0  0  0
   19.2191    1.6474    9.7250 N   0  0  0  0  0  0  0  0  0  0  0  0
   18.9557    2.9012    9.8552 C   0  0  0  0  0  0  0  0  0  0  0  0
   18.5903   -0.5357    9.2894 C   0  0  2  0  0  0  0  0  0  0  0  0
   17.9974    3.5218    9.3033 O   0  0  0  0  0  0  0  0  0  0  0  0
   19.3733    0.9396   11.0116 C   0  0  2  0  0  0  0  0  0  0  0  0
   19.8472    3.7816   10.7762 C   0  0  0  0  0  0  0  0  0  0  0  0
   20.6720    0.8221   11.4428 N   0  0  0  0  0  0  0  0  0  0  0  0
   17.8417   -1.0997    7.7910 C   0  0  0  0  0  0  0  0  0  0  0  0
   18.7099   -0.4539   10.7247 C   0  0  1  0  0  0  0  0  0  0  0  0
   19.0757    4.5672   11.7514 C   0  0  0  0  0  0  0  0  0  0  0  0
   17.3232   -0.6722   11.2398 C   0  0  0  0  0  0  0  0  0  0  0  0
   18.9236    4.2143   12.9840 N   0  0  0  0  0  0  0  0  0  0  0  0
   17.7891    3.8863   13.4963 C   0  0  0  0  0  0  0  0  0  0  0  0
   19.7065   -1.4068   11.3611 C   0  0  0  0  0  0  0  0  0  0  0  0
   19.3700   -2.5859   11.7050 O   0  0  0  0  0  0  0  0  0  0  0  0
   21.0078   -0.8531   11.3072 N   0  0  0  0  0  0  0  0  0  0  0  0
   17.8567    3.0769   14.6804 C   0  0  0  0  0  0  0  0  0  0  0  0
   18.8075    2.0781   14.6911 O   0  0  0  0  0  0  0  0  0  0  0  0
   18.3824    0.8849   15.4670 C   0  0  0  0  0  0  0  0  0  0  0  0
   18.2122   -0.2706   14.9486 C   0  0  0  0  0  0  0  0  0  0  0  0
   18.0155   -1.4607   15.6009 C   0  0  0  0  0  0  0  0  0  0  0  0
   18.4454    0.9301   16.8348 C   0  0  0  0  0  0  0  0  0  0  0  0
   18.2350   -1.2399   17.0248 C   0  0  0  0  0  0  0  0  0  0  0  0
   18.4060   -0.0952   17.5345 C   0  0  0  0  0  0  0  0  0  0  0  0
  1  2  1  0
  2  3  1  0
  1  4  1  0
  5  3  1  6
  4  6  1  0
  5  6  1  0
  6  7  1  0
  7  8  1  1
  8  9  1  0
  7 10  1  0
  9 11  2  0
  8 12  1  0
  9 13  1  0
 12 14  1  6
  5 15  1  0
 10 15  1  1
 10 16  1  0
 12 16  1  0
 13 17  1  0
 16 18  1  1
 17 19  1  0
 19 20  1  0
 16 21  1  0
 21 22  2  0
 14 23  1  0
 21 23  1  0
 20 24  1  0
 24 25  1  0
 25 26  1  0
 26 27  1  0
 27 28  1  0
 26 29  1  0
 28 30  1  0
 29 31  1  0
 30 31  1  0
M  END
$$$$
71
     RDKit          3D

 31 36  0  0  0  0  0  0  0  0999 V2000
   18.7997   -2.2022   15.5945 C   0  0  0  0  0  0  0  0  0  0  0  0
   18.4933   -1.3572   14.6101 C   0  0  0  0  0  0  0  0  0  0  0  0
   17.6980   -0.2041   15.0702 C   0  0  2  0  0  0  0  0  0  0  0  0
   18.6186   -1.8272   16.9955 C   0  0  1  0  0  0  0  0  0  0  0  0
   17.1964    0.7444   14.0715 C   0  0  0  0  0  0  0  0  0  0  0  0
   17.7034    0.1501   16.4581 C   0  0  0  0  0  0  0  0  0  0  0  0
   19.0776   -2.7402   18.0080 F   0  0  0  0  0  0  0  0  0  0  0  0
   18.1595   -0.6160   17.3279 C   0  0  0  0  0  0  0  0  0  0  0  0
   18.0466    1.3349   13.1379 N   0  0  0  0  0  0  0  0  0  0  0  0
   18.5747    2.4817   13.3767 C   0  0  2  0  0  0  0  0  0  0  0  0
   17.6319    1.1267   11.7227 C   0  0  2  0  0  0  0  0  0  0  0  0
   17.6243    3.5223   12.8024 O   0  0  0  0  0  0  0  0  0  0  0  0
   18.1176    4.4482   11.9460 C   0  0  2  0  0  0  0  0  0  0  0  0
   19.8010    2.5993   12.4257 C   0  0  0  0  0  0  0  0  0  0  0  0
   17.5988   -0.2761   11.3339 O   0  0  0  0  0  0  0  0  0  0  0  0
   17.9644   -0.6687   10.1559 C   0  0  2  0  0  0  0  0  0  0  0  0
   17.8282   -2.0059    9.9145 C   0  0  1  0  0  0  0  0  0  0  0  0
   18.7122    0.1534    9.3241 C   0  0  2  0  0  0  0  0  0  0  0  0
   16.9551   -2.7713   10.8061 O   0  0  0  0  0  0  0  0  0  0  0  0
   18.2101    1.5029    9.2922 C   0  0  0  0  0  0  0  0  0  0  0  0
   18.9378   -0.4629    7.9788 C   0  0  0  0  0  0  0  0  0  0  0  0
   18.2596   -2.5109    8.6635 C   0  0  2  0  0  0  0  0  0  0  0  0
   17.3011    4.5129   10.7743 C   0  0  0  0  0  0  0  0  0  0  0  0
   19.4818    3.7293   11.5632 C   0  0  0  0  0  0  0  0  0  0  0  0
   18.9082    2.3779    8.5425 O   0  0  0  0  0  0  0  0  0  0  0  0
   18.0265   -3.9358    8.3928 C   0  0  0  0  0  0  0  0  0  0  0  0
   17.4844    1.8731   10.3226 N   0  0  0  0  0  0  0  0  0  0  0  0
   17.1711   -4.1308   10.4455 C   0  0  0  0  0  0  0  0  0  0  0  0
   17.0308    3.1284   10.2183 O   0  0  0  0  0  0  0  0  0  0  0  0
   18.9332   -1.8105    7.8281 C   0  0  0  0  0  0  0  0  0  0  0  0
   17.3234   -4.6790    9.3300 C   0  0  0  0  0  0  0  0  0  0  0  0
  1  2  1  0
  2  3  1  0
  1  4  1  0
  3  5  1  6
  3  6  1  0
  4  7  1  1
  4  8  1  0
  6  8  1  0
  5  9  1  0
  9 10  1  0
  9 11  1  0
 10 12  1  0
 12 13  1  0
 10 14  1  6
 11 15  1  6
 16 15  1  1
 16 17  1  0
 16 18  1  0
 17 19  1  6
 18 20  1  0
 18 21  1  6
 17 22  1  0
 13 23  1  6
 13 24  1  0
 14 24  1  0
 20 25  2  0
 22 26  1  1
 11 27  1  0
 20 27  1  0
 19 28  1  0
 23 29  1  0
 27 29  1  0
 21 30  1  0
 22 30  1  0
 26 31  1  0
 28 31  1  0
M  END
$$$$
72
     RDKit          3D

 32 39  0  0  0  0  0  0  0  0999 V2000
   18.7669   -2.0629   15.8816 C   0  0  0  0  0  0  0  0  0  0  0  0
   18.2939   -1.4542   16.9168 C   0  0  0  0  0  0  0  0  0  0  0  0
   18.5140   -1.4731   14.6004 C   0  0  2  0  0  0  0  0  0  0  0  0
   18.9159   -1.9595   13.4056 C   0  0  0  0  0  0  0  0  0  0  0  0
   18.0068   -0.1594   14.8235 C   0  0  0  0  0  0  0  0  0  0  0  0
   17.7593    0.6187   13.5942 C   0  0  2  0  0  0  0  0  0  0  0  0
   18.6507   -1.1781   12.2583 C   0  0  0  0  0  0  0  0  0  0  0  0
   17.6155    0.6310   15.9694 C   0  0  0  0  0  0  0  0  0  0  0  0
   17.9199   -0.1899   17.1646 C   0  0  0  0  0  0  0  0  0  0  0  0
   18.9853   -1.6649   10.9655 N   0  0  0  0  0  0  0  0  0  0  0  0
   17.0984    1.8218   13.6510 O   0  0  0  0  0  0  0  0  0  0  0  0
   19.4803   -2.8034   10.7367 C   0  0  0  0  0  0  0  0  0  0  0  0
   17.8788    2.8401   13.1992 C   0  0  0  0  0  0  0  0  0  0  0  0
   18.8695   -3.8643   10.9311 O   0  0  0  0  0  0  0  0  0  0  0  0
   18.4957   -0.7002    9.8775 C   0  0  1  0  0  0  0  0  0  0  0  0
   20.3728   -2.8347    9.5632 N   0  0  0  0  0  0  0  0  0  0  0  0
   18.0623    0.1224   12.3678 C   0  0  0  0  0  0  0  0  0  0  0  0
   17.4335    3.4196   11.9083 C   0  0  0  0  0  0  0  0  0  0  0  0
   17.9233    0.5316   10.8608 C   0  0  1  0  0  0  0  0  0  0  0  0
   19.3837   -0.1042    8.9393 C   0  0  0  0  0  0  0  0  0  0  0  0
   16.5867    4.4073   11.8301 O   0  0  0  0  0  0  0  0  0  0  0  0
   18.8526    0.9936    8.3122 C   0  0  2  0  0  0  0  0  0  0  0  0
   20.5843   -0.7520    8.7911 N   0  0  0  0  0  0  0  0  0  0  0  0
   20.9578   -1.7153    9.4123 C   0  0  0  0  0  0  0  0  0  0  0  0
   19.4472    1.3442    6.9966 C   0  0  0  0  0  0  0  0  0  0  0  0
   17.6606    2.8936   10.6549 N   0  0  0  0  0  0  0  0  0  0  0  0
   18.0074    1.8854    8.7398 N   0  0  0  0  0  0  0  0  0  0  0  0
   17.5641    3.7844    9.6344 C   0  0  0  0  0  0  0  0  0  0  0  0
   18.6998    2.2537    6.2489 C   0  0  0  0  0  0  0  0  0  0  0  0
   17.8261    1.7331   10.0464 C   0  0  1  0  0  0  0  0  0  0  0  0
   17.9390    3.1186    8.4633 C   0  0  2  0  0  0  0  0  0  0  0  0
   18.1748    3.4385    7.1048 C   0  0  0  0  0  0  0  0  0  0  0  0
  1  2  1  0
  3  1  1  1
  3  4  1  0
  3  5  1  0
  5  6  1  0
  4  7  1  0
  5  8  1  0
  2  9  1  0
  8  9  1  0
  7 10  1  0
  6 11  1  6
 10 12  1  0
 11 13  1  0
 12 14  2  0
 10 15  1  0
 12 16  1  0
  6 17  1  0
  7 17  1  0
 13 18  1  0
 15 19  1  0
 19 17  1  1
 15 20  1  6
 18 21  2  0
 20 22  1  0
 20 23  1  0
 16 24  1  0
 23 24  1  0
 22 25  1  1
 18 26  1  0
 22 27  1  0
 26 28  1  0
 25 29  1  0
 19 30  1  0
 30 26  1  1
 27 30  1  0
 27 31  1  0
 31 28  1  6
 29 32  1  0
 31 32  1  0
M  END
$$$$
73
     RDKit          3D

 32 39  0  0  0  0  0  0  0  0999 V2000
   19.0881   -2.2270   16.7779 C   0  0  0  0  0  0  0  0  0  0  0  0
   18.6073   -1.2451   17.5844 C   0  0  0  0  0  0  0  0  0  0  0  0
   18.7304   -2.1944   15.4059 C   0  0  0  0  0  0  0  0  0  0  0  0
   18.1157   -1.0523   14.8506 C   0  0  0  0  0  0  0  0  0  0  0  0
   17.6583   -0.0433   15.7466 C   0  0  0  0  0  0  0  0  0  0  0  0
   17.9022   -0.1024   17.0757 C   0  0  0  0  0  0  0  0  0  0  0  0
   16.8987    1.1095   15.1936 C   0  0  0  0  0  0  0  0  0  0  0  0
   17.8530    2.1349   14.7188 N   0  0  0  0  0  0  0  0  0  0  0  0
   17.7460    2.6234   13.5988 C   0  0  2  0  0  0  0  0  0  0  0  0
   18.0420    1.9745   12.5412 N   0  0  0  0  0  0  0  0  0  0  0  0
   17.5331    4.0088   13.5231 N   0  0  0  0  0  0  0  0  0  0  0  0
   17.9411    2.7715   11.3630 C   0  0  0  0  0  0  0  0  0  0  0  0
   18.1614    0.5280   12.1836 C   0  0  1  0  0  0  0  0  0  0  0  0
   17.7048    4.1403   12.0268 C   0  0  1  0  0  0  0  0  0  0  0  0
   17.4762    5.5259   11.4056 C   0  0  0  0  0  0  0  0  0  0  0  0
   17.4526    5.3634    9.9757 C   0  0  0  0  0  0  0  0  0  0  0  0
   17.7668    4.1091    9.2726 C   0  0  0  0  0  0  0  0  0  0  0  0
   17.9664    2.9562    9.9887 C   0  0  0  0  0  0  0  0  0  0  0  0
   18.2611    1.6795    9.2242 C   0  0  2  0  0  0  0  0  0  0  0  0
   18.6644    0.4775    9.9830 N   0  0  0  0  0  0  0  0  0  0  0  0
   19.2959   -0.4666    9.1831 C   0  0  1  0  0  0  0  0  0  0  0  0
   19.7523   -1.6096    9.9063 C   0  0  0  0  0  0  0  0  0  0  0  0
   18.6528    0.0822   11.0492 N   0  0  0  0  0  0  0  0  0  0  0  0
   17.9404   -0.8756   13.3930 S   0  0  0  0  0  0  0  0  0  0  0  0
   19.3004   -1.1790   11.2324 N   0  0  0  0  0  0  0  0  0  0  0  0
   18.5254    1.2123    7.8918 C   0  0  1  0  0  0  0  0  0  0  0  0
   19.1216   -0.0993    7.8322 C   0  0  2  0  0  0  0  0  0  0  0  0
   18.0728    1.9289    6.7161 C   0  0  0  0  0  0  0  0  0  0  0  0
   18.2216    1.1863    5.4432 C   0  0  2  0  0  0  0  0  0  0  0  0
   17.9323    1.8608    4.1929 C   0  0  0  0  0  0  0  0  0  0  0  0
   18.3846   -0.2256    5.4317 C   0  0  0  0  0  0  0  0  0  0  0  0
   18.9118   -0.8854    6.6101 C   0  0  0  0  0  0  0  0  0  0  0  0
  1  2  1  0
  1  3  1  0
  3  4  1  0
  4  5  1  0
  2  6  1  0
  5  6  1  0
  5  7  1  0
  7  8  1  0
  9  8  1  1
  9 10  1  0
  9 11  1  0
 10 12  1  0
 10 13  1  0
 11 14  1  0
 12 14  1  0
 14 15  1  6
 15 16  1  0
 16 17  1  0
 12 18  1  0
 17 18  1  0
 19 18  1  1
 19 20  1  0
 20 21  1  0
 21 22  1  6
 13 23  1  0
 20 23  1  0
  4 24  1  0
 13 24  1  1
 22 25  1  0
 23 25  1  0
 19 26  1  0
 21 27  1  0
 26 27  1  0
 26 28  1  6
 28 29  1  0
 29 30  1  6
 29 31  1  0
 27 32  1  6
 31 32  1  0
M  END
$$$$
74
     RDKit          3D

 32 39  0  0  0  0  0  0  0  0999 V2000
   17.9618    0.0112   18.4162 C   0  0  0  0  0  0  0  0  0  0  0  0
   17.4745    0.8812   17.4553 C   0  0  1  0  0  0  0  0  0  0  0  0
   17.3103    2.2036   17.7683 C   0  0  0  0  0  0  0  0  0  0  0  0
   18.1031   -1.3449   17.9141 C   0  0  2  0  0  0  0  0  0  0  0  0
   18.2488    3.1817   18.0157 C   0  0  0  0  0  0  0  0  0  0  0  0
   18.7913    3.6225   16.7684 C   0  0  0  0  0  0  0  0  0  0  0  0
   18.6993   -2.3197   18.7987 F   0  0  0  0  0  0  0  0  0  0  0  0
   18.7951    2.5868   15.6689 C   0  0  2  0  0  0  0  0  0  0  0  0
   18.8395   -1.4592   16.6624 C   0  0  0  0  0  0  0  0  0  0  0  0
   18.2806   -1.0133   15.6895 C   0  0  2  0  0  0  0  0  0  0  0  0
   18.7629    3.1852   14.3967 N   0  0  0  0  0  0  0  0  0  0  0  0
   18.5548   -1.2418   14.3485 C   0  0  0  0  0  0  0  0  0  0  0  0
   17.9390    0.5549   15.8398 C   0  0  2  0  0  0  0  0  0  0  0  0
   18.0369    1.5505   15.0728 C   0  0  2  0  0  0  0  0  0  0  0  0
   17.8157    1.5479   13.8038 N   0  0  0  0  0  0  0  0  0  0  0  0
   19.3226    4.6468   14.2635 C   0  0  0  0  0  0  0  0  0  0  0  0
   19.0151    5.1550   12.9018 C   0  0  0  0  0  0  0  0  0  0  0  0
   18.1071   -0.6111   13.2256 N   0  0  0  0  0  0  0  0  0  0  0  0
   18.9293    4.1720   11.9760 O   0  0  0  0  0  0  0  0  0  0  0  0
   18.2859    2.6135   13.3563 C   0  0  1  0  0  0  0  0  0  0  0  0
   17.9973    0.5524   12.8186 C   0  0  2  0  0  0  0  0  0  0  0  0
   17.7562    3.0844   12.0332 C   0  0  2  0  0  0  0  0  0  0  0  0
   19.2307   -2.4036   14.0873 O   0  0  0  0  0  0  0  0  0  0  0  0
   18.7319    0.9484   11.6456 C   0  0  2  0  0  0  0  0  0  0  0  0
   18.2380    2.1619   11.0049 C   0  0  0  0  0  0  0  0  0  0  0  0
   18.5493   -0.2614   10.6641 C   0  0  2  0  0  0  0  0  0  0  0  0
   18.1644    2.4887    9.6812 C   0  0  0  0  0  0  0  0  0  0  0  0
   18.4200    1.4802    8.7299 C   0  0  0  0  0  0  0  0  0  0  0  0
   19.5885   -1.1043   10.7774 N   0  0  0  0  0  0  0  0  0  0  0  0
   20.6083   -1.0561    9.8622 C   0  0  0  0  0  0  0  0  0  0  0  0
   18.8409    0.2966    9.1582 C   0  0  0  0  0  0  0  0  0  0  0  0
   19.7332   -0.6359    8.7236 C   0  0  0  0  0  0  0  0  0  0  0  0
  2  1  1  1
  2  3  1  0
  1  4  1  0
  3  5  1  0
  5  6  1  0
  4  7  1  1
  8  6  1  1
  4  9  1  0
 10  9  1  1
  8 11  1  0
 10 12  1  0
 13  2  1  1
 10 13  1  0
  8 14  1  0
 13 14  1  0
 14 15  1  6
 11 16  1  0
 16 17  1  0
 12 18  1  0
 17 19  1  0
 20 11  1  1
 15 20  1  0
 15 21  1  0
 21 18  1  1
 22 19  1  6
 20 22  1  0
 12 23  2  0
 21 24  1  0
 22 25  1  0
 24 25  1  6
 24 26  1  0
 25 27  1  0
 27 28  1  0
 26 29  1  1
 29 30  1  0
 26 31  1  0
 28 31  2  0
 30 32  1  0
 31 32  1  0
M  END
$$$$
75
     RDKit          3D

 32 36  0  0  0  0  0  0  0  0999 V2000
   18.7167   -1.7873   17.2486 C   0  0  0  0  0  0  0  0  0  0  0  0
   17.9033   -0.7595   17.6024 C   0  0  1  0  0  0  0  0  0  0  0  0
   18.8545   -2.1094   15.8726 C   0  0  0  0  0  0  0  0  0  0  0  0
   18.3986   -1.1293   14.9493 C   0  0  0  0  0  0  0  0  0  0  0  0
   17.7842   -0.3680   19.0069 C   0  0  0  0  0  0  0  0  0  0  0  0
   17.6444    0.2718   16.5621 C   0  0  0  0  0  0  0  0  0  0  0  0
   17.8732   -0.0378   15.3414 C   0  0  0  0  0  0  0  0  0  0  0  0
   17.4763    0.9222   14.2721 C   0  0  0  0  0  0  0  0  0  0  0  0
   17.5998    2.2626   14.4886 N   0  0  0  0  0  0  0  0  0  0  0  0
   16.9193    0.5538   13.0957 O   0  0  0  0  0  0  0  0  0  0  0  0
   17.3824    3.2301   13.4205 C   0  0  1  0  0  0  0  0  0  0  0  0
   17.4347    4.5598   13.8728 C   0  0  0  0  0  0  0  0  0  0  0  0
   17.7236    2.9869   12.0712 C   0  0  2  0  0  0  0  0  0  0  0  0
   17.6162    4.0534   11.1602 C   0  0  2  0  0  0  0  0  0  0  0  0
   17.9605    1.5570   11.4490 N   0  0  0  0  0  0  0  0  0  0  0  0
   17.7105    3.8228    9.6244 C   0  0  0  0  0  0  0  0  0  0  0  0
   17.3880    5.5788   12.9205 C   0  0  0  0  0  0  0  0  0  0  0  0
   17.5098    5.3146   11.5668 C   0  0  0  0  0  0  0  0  0  0  0  0
   17.9846    2.6016    9.1554 C   0  0  1  0  0  0  0  0  0  0  0  0
   18.2426    2.4185    7.8606 N   0  0  0  0  0  0  0  0  0  0  0  0
   18.6217    1.2008    7.4759 C   0  0  2  0  0  0  0  0  0  0  0  0
   18.1154    1.5643   10.1255 C   0  0  2  0  0  0  0  0  0  0  0  0
   18.3933    0.2693    9.5383 N   0  0  0  0  0  0  0  0  0  0  0  0
   18.7324    0.9990    6.0356 C   0  0  0  0  0  0  0  0  0  0  0  0
   18.5193   -0.2209    5.3924 C   0  0  0  0  0  0  0  0  0  0  0  0
   18.5928   -0.8374   10.4663 C   0  0  0  0  0  0  0  0  0  0  0  0
   20.0014   -1.3277   10.3405 C   0  0  0  0  0  0  0  0  0  0  0  0
   18.7343    0.0380    8.2797 C   0  0  1  0  0  0  0  0  0  0  0  0
   19.0940   -1.2009    7.7813 C   0  0  0  0  0  0  0  0  0  0  0  0
   18.9099   -1.3832    6.2902 C   0  0  0  0  0  0  0  0  0  0  0  0
   20.0488   -2.6030    9.9426 N   0  0  0  0  0  0  0  0  0  0  0  0
   20.9367   -0.5157   10.5168 O   0  0  0  0  0  0  0  0  0  0  0  0
  1  2  1  0
  1  3  1  0
  3  4  1  0
  2  5  1  1
  2  6  1  0
  4  7  1  0
  6  7  1  0
  7  8  1  0
  8  9  1  0
  8 10  2  0
 11  9  1  1
 11 12  1  0
 11 13  1  0
 13 14  1  0
 13 15  1  6
 14 16  1  6
 12 17  1  0
 14 18  1  0
 17 18  1  0
 19 16  1  1
 19 20  1  0
 20 21  1  0
 22 15  1  6
 19 22  1  0
 22 23  1  0
 21 24  1  6
 24 25  1  0
 23 26  1  0
 26 27  1  0
 21 28  1  0
 23 28  1  0
 28 29  1  6
 25 30  1  0
 29 30  1  0
 27 31  1  0
 27 32  2  0
M  END
$$$$
76
     RDKit          3D

 32 36  0  0  0  0  0  0  0  0999 V2000
   19.0881   -2.2270   16.7779 C   0  0  0  0  0  0  0  0  0  0  0  0
   18.5610   -1.9011   15.5213 C   0  0  0  0  0  0  0  0  0  0  0  0
   18.5925   -1.4624   17.8626 C   0  0  0  0  0  0  0  0  0  0  0  0
   17.8213   -0.3253   17.5134 C   0  0  1  0  0  0  0  0  0  0  0  0
   17.3333    0.5798   18.6112 C   0  0  0  0  0  0  0  0  0  0  0  0
   17.8584   -0.7832   15.2212 C   0  0  1  0  0  0  0  0  0  0  0  0
   17.5482    0.0444   16.2523 C   0  0  0  0  0  0  0  0  0  0  0  0
   17.5024   -0.3983   13.8291 C   0  0  0  0  0  0  0  0  0  0  0  0
   18.3365    0.3948   13.0572 N   0  0  0  0  0  0  0  0  0  0  0  0
   17.9461    0.8133   11.7589 C   0  0  2  0  0  0  0  0  0  0  0  0
   18.6381    1.8684   11.3791 C   0  0  0  0  0  0  0  0  0  0  0  0
   16.4075    0.8982   11.7690 O   0  0  0  0  0  0  0  0  0  0  0  0
   16.0019    0.4872   10.4772 C   0  0  0  0  0  0  0  0  0  0  0  0
   17.0477    0.0126    9.5885 C   0  0  0  0  0  0  0  0  0  0  0  0
   17.9976   -0.2897   10.5833 C   0  0  1  0  0  0  0  0  0  0  0  0
   19.8907    1.6144   10.7423 C   0  0  0  0  0  0  0  0  0  0  0  0
   18.3170    3.3041   11.5438 C   0  0  0  0  0  0  0  0  0  0  0  0
   19.0200    4.1737   11.0593 C   0  0  0  0  0  0  0  0  0  0  0  0
   18.6377    5.7055   11.1160 C   0  0  0  0  0  0  0  0  0  0  0  0
   17.2722    5.8262   11.2984 C   0  0  0  0  0  0  0  0  0  0  0  0
   20.1344    0.3255   10.0861 C   0  0  0  0  0  0  0  0  0  0  0  0
   19.1383   -0.5703    9.8689 N   0  0  0  0  0  0  0  0  0  0  0  0
   16.5055    4.8284   11.9184 C   0  0  0  0  0  0  0  0  0  0  0  0
   17.0216    3.5087   11.9704 C   0  0  0  0  0  0  0  0  0  0  0  0
   19.4147   -1.7514    9.2084 C   0  0  0  0  0  0  0  0  0  0  0  0
   18.7487   -2.8947    9.7706 C   0  0  0  0  0  0  0  0  0  0  0  0
   19.7450   -3.6464   10.4633 C   0  0  0  0  0  0  0  0  0  0  0  0
   21.3129   -0.0678    9.7390 O   0  0  0  0  0  0  0  0  0  0  0  0
   17.5610   -3.4524    9.4777 C   0  0  0  0  0  0  0  0  0  0  0  0
   17.1413   -4.6743   10.0382 C   0  0  0  0  0  0  0  0  0  0  0  0
   19.3217   -4.9557   10.9756 C   0  0  0  0  0  0  0  0  0  0  0  0
   18.0091   -5.4208   10.8020 C   0  0  0  0  0  0  0  0  0  0  0  0
  1  2  1  0
  1  3  1  0
  3  4  1  0
  4  5  1  6
  6  2  1  6
  4  7  1  0
  6  7  1  0
  6  8  1  0
  8  9  2  3
  9 10  1  0
 10 11  1  0
 10 12  1  1
 12 13  1  0
 13 14  1  0
 10 15  1  0
 15 14  1  6
 11 16  1  0
 11 17  1  0
 17 18  1  0
 18 19  1  0
 19 20  1  0
 16 21  1  0
 15 22  1  0
 21 22  1  0
 20 23  1  0
 17 24  1  0
 23 24  1  0
 22 25  1  0
 25 26  1  0
 26 27  1  0
 21 28  2  0
 26 29  1  0
 29 30  1  0
 27 31  1  0
 30 32  1  0
 31 32  1  0
M  END
$$$$
77
     RDKit          3D

 32 34  0  0  0  0  0  0  0  0999 V2000
   18.7997   -2.2022   15.5945 C   0  0  0  0  0  0  0  0  0  0  0  0
   18.4933   -1.3572   14.6101 C   0  0  0  0  0  0  0  0  0  0  0  0
   17.6980   -0.2041   15.0702 C   0  0  2  0  0  0  0  0  0  0  0  0
   18.6186   -1.8272   16.9955 C   0  0  1  0  0  0  0  0  0  0  0  0
   17.1964    0.7444   14.0715 C   0  0  0  0  0  0  0  0  0  0  0  0
   17.7034    0.1501   16.4581 C   0  0  0  0  0  0  0  0  0  0  0  0
   19.0776   -2.7402   18.0080 F   0  0  0  0  0  0  0  0  0  0  0  0
   18.1595   -0.6160   17.3279 C   0  0  0  0  0  0  0  0  0  0  0  0
   18.0466    1.3349   13.1379 N   0  0  0  0  0  0  0  0  0  0  0  0
   18.5747    2.4817   13.3767 C   0  0  0  0  0  0  0  0  0  0  0  0
   17.6319    1.1267   11.7227 C   0  0  1  0  0  0  0  0  0  0  0  0
   18.0008    2.0903   11.0478 C   0  0  1  0  0  0  0  0  0  0  0  0
   17.7792    2.4213    9.6893 C   0  0  0  0  0  0  0  0  0  0  0  0
   18.6468    3.0291   12.0292 C   0  0  0  0  0  0  0  0  0  0  0  0
   17.8849    3.7766    9.2714 N   0  0  0  0  0  0  0  0  0  0  0  0
   17.2431   -0.0291   11.0668 N   0  0  0  0  0  0  0  0  0  0  0  0
   17.5342    1.3299    8.9392 N   0  0  0  0  0  0  0  0  0  0  0  0
   17.2088    0.1266    9.6986 C   0  0  1  0  0  0  0  0  0  0  0  0
   17.0689   -1.0316    8.9267 N   0  0  0  0  0  0  0  0  0  0  0  0
   17.0960   -2.2949    9.5299 C   0  0  0  0  0  0  0  0  0  0  0  0
   16.7064   -0.9433    7.6402 C   0  0  0  0  0  0  0  0  0  0  0  0
   18.3818   -3.0435    9.2391 C   0  0  2  0  0  0  0  0  0  0  0  0
   17.5857   -1.5765    6.6421 C   0  0  0  0  0  0  0  0  0  0  0  0
   18.4430   -4.2794    9.6859 C   0  0  0  0  0  0  0  0  0  0  0  0
   17.3179   -4.9850    9.5427 C   0  0  0  0  0  0  0  0  0  0  0  0
   19.7421   -2.3198    9.4746 C   0  0  0  0  0  0  0  0  0  0  0  0
   19.7135   -4.9232    9.2023 C   0  0  0  0  0  0  0  0  0  0  0  0
   19.8508   -1.4812   10.7470 O   0  0  0  0  0  0  0  0  0  0  0  0
   17.3972   -0.9161    5.3318 C   0  0  0  0  0  0  0  0  0  0  0  0
   17.5715    0.4364    5.2817 C   0  0  0  0  0  0  0  0  0  0  0  0
   18.8129    1.0010    4.7959 C   0  0  0  0  0  0  0  0  0  0  0  0
   20.3893   -0.1513   10.7160 C   0  0  0  0  0  0  0  0  0  0  0  0
  1  2  1  0
  2  3  1  0
  1  4  1  0
  3  5  1  6
  3  6  1  0
  4  7  1  1
  4  8  1  0
  6  8  1  0
  5  9  1  0
  9 10  1  0
  9 11  1  0
 11 12  1  0
 12 13  1  0
 10 14  1  0
 12 14  1  1
 13 15  1  0
 11 16  1  6
 13 17  1  0
 16 18  1  0
 17 18  1  0
 18 19  1  6
 19 20  1  0
 19 21  1  0
 22 20  1  1
 21 23  1  0
 22 24  1  0
 24 25  1  0
 22 26  1  0
 24 27  1  0
 26 28  1  0
 23 29  1  0
 29 30  1  0
 30 31  1  0
 28 32  1  0
M  END
$$$$
78
     RDKit          3D

 32 37  0  0  0  0  0  0  0  0999 V2000
   18.8579    1.8829    4.7669 C   0  0  0  0  0  0  0  0  0  0  0  0
   18.6818    1.4842    5.9171 C   0  0  0  0  0  0  0  0  0  0  0  0
   18.1017    0.2248    6.2468 C   0  0  0  0  0  0  0  0  0  0  0  0
   17.8160   -0.2171    7.5817 N   0  0  0  0  0  0  0  0  0  0  0  0
   17.7281   -0.6052    5.1439 C   0  0  0  0  0  0  0  0  0  0  0  0
   16.9684   -1.1991    7.8690 C   0  0  0  0  0  0  0  0  0  0  0  0
   18.4661    0.5093    8.7325 C   0  0  0  0  0  0  0  0  0  0  0  0
   18.5792    1.0179    3.6317 C   0  0  0  0  0  0  0  0  0  0  0  0
   17.5624   -2.2561    8.8541 C   0  0  1  0  0  0  0  0  0  0  0  0
   16.8387   -3.4148    9.0445 C   0  0  0  0  0  0  0  0  0  0  0  0
   18.0664   -0.2648    3.8993 C   0  0  0  0  0  0  0  0  0  0  0  0
   18.9388   -2.6542    8.4128 C   0  0  2  0  0  0  0  0  0  0  0  0
   19.4692   -3.6531    9.4573 C   0  0  0  0  0  0  0  0  0  0  0  0
   19.1283   -0.1889    9.7088 C   0  0  1  0  0  0  0  0  0  0  0  0
   17.7982   -1.5728   10.3533 C   0  0  1  0  0  0  0  0  0  0  0  0
   16.5603   -0.7319   10.7280 C   0  0  0  0  0  0  0  0  0  0  0  0
   20.3834   -0.8688    9.2724 C   0  0  0  0  0  0  0  0  0  0  0  0
   18.2935    1.8546    8.7627 O   0  0  0  0  0  0  0  0  0  0  0  0
   19.2139    0.2479   11.1565 C   0  0  1  0  0  0  0  0  0  0  0  0
   16.9704    0.2387   11.8172 C   0  0  0  0  0  0  0  0  0  0  0  0
   18.1533    1.0990   11.6195 N   0  0  0  0  0  0  0  0  0  0  0  0
   17.8747    2.5394   11.2774 C   0  0  0  0  0  0  0  0  0  0  0  0
   16.5328    0.3346   12.9401 O   0  0  0  0  0  0  0  0  0  0  0  0
   20.3166   -1.8280    8.3203 N   0  0  0  0  0  0  0  0  0  0  0  0
   17.8435   -4.5224    9.4917 C   0  0  0  0  0  0  0  0  0  0  0  0
   19.8468   -0.7095   12.0202 O   0  0  0  0  0  0  0  0  0  0  0  0
   18.7523    3.5129   11.8489 C   0  0  0  0  0  0  0  0  0  0  0  0
   18.9655    4.6487   11.1986 C   0  0  0  0  0  0  0  0  0  0  0  0
   17.7043    5.4474   11.0191 C   0  0  0  0  0  0  0  0  0  0  0  0
   16.7484    5.1589   11.8461 C   0  0  0  0  0  0  0  0  0  0  0  0
   16.9170    4.6586   13.0358 C   0  0  0  0  0  0  0  0  0  0  0  0
   18.2097    4.0733   13.3551 C   0  0  0  0  0  0  0  0  0  0  0  0
  1  2  1  0
  2  3  1  0
  3  4  1  0
  3  5  1  0
  4  6  1  0
  4  7  1  0
  1  8  1  0
  9  6  1  6
  9 10  1  0
  5 11  1  0
  8 11  1  0
  9 12  1  0
 12 13  1  1
  7 14  1  0
  9 15  1  0
 14 15  1  0
 15 16  1  6
 14 17  1  6
  7 18  2  0
 14 19  1  0
 16 20  1  0
 19 21  1  0
 20 21  1  0
 21 22  1  0
 20 23  2  0
 12 24  1  0
 17 24  1  0
 10 25  1  0
 13 25  1  0
 19 26  1  1
 22 27  1  0
 27 28  1  0
 28 29  1  0
 29 30  1  0
 30 31  1  0
 27 32  1  0
 31 32  1  0
M  END
$$$$
79
     RDKit          3D

 32 35  0  0  0  0  0  0  0  0999 V2000
   19.0881   -2.2270   16.7779 C   0  0  0  0  0  0  0  0  0  0  0  0
   18.5610   -1.9011   15.5213 C   0  0  0  0  0  0  0  0  0  0  0  0
   18.5925   -1.4624   17.8626 C   0  0  0  0  0  0  0  0  0  0  0  0
   17.8213   -0.3253   17.5134 C   0  0  1  0  0  0  0  0  0  0  0  0
   17.3333    0.5798   18.6112 C   0  0  0  0  0  0  0  0  0  0  0  0
   17.8584   -0.7832   15.2212 C   0  0  1  0  0  0  0  0  0  0  0  0
   17.5482    0.0444   16.2523 C   0  0  0  0  0  0  0  0  0  0  0  0
   17.5024   -0.3983   13.8291 C   0  0  0  0  0  0  0  0  0  0  0  0
   18.3365    0.3948   13.0572 N   0  0  0  0  0  0  0  0  0  0  0  0
   17.9461    0.8133   11.7589 C   0  0  2  0  0  0  0  0  0  0  0  0
   18.6381    1.8684   11.3791 C   0  0  0  0  0  0  0  0  0  0  0  0
   16.4075    0.8982   11.7690 O   0  0  0  0  0  0  0  0  0  0  0  0
   16.0019    0.4872   10.4772 C   0  0  0  0  0  0  0  0  0  0  0  0
   17.0477    0.0126    9.5885 C   0  0  0  0  0  0  0  0  0  0  0  0
   17.9976   -0.2897   10.5833 C   0  0  1  0  0  0  0  0  0  0  0  0
   19.8907    1.6144   10.7423 C   0  0  0  0  0  0  0  0  0  0  0  0
   18.3170    3.3041   11.5438 C   0  0  0  0  0  0  0  0  0  0  0  0
   19.0200    4.1737   11.0593 C   0  0  0  0  0  0  0  0  0  0  0  0
   18.6377    5.7055   11.1160 C   0  0  0  0  0  0  0  0  0  0  0  0
   17.2722    5.8262   11.2984 C   0  0  0  0  0  0  0  0  0  0  0  0
   20.1344    0.3255   10.0861 C   0  0  0  0  0  0  0  0  0  0  0  0
   19.1383   -0.5703    9.8689 N   0  0  0  0  0  0  0  0  0  0  0  0
   16.5055    4.8284   11.9184 C   0  0  0  0  0  0  0  0  0  0  0  0
   17.0216    3.5087   11.9704 C   0  0  0  0  0  0  0  0  0  0  0  0
   19.4147   -1.7514    9.2084 C   0  0  0  0  0  0  0  0  0  0  0  0
   18.7487   -2.8947    9.7706 C   0  0  2  0  0  0  0  0  0  0  0  0
   19.7450   -3.6464   10.4633 C   0  0  0  0  0  0  0  0  0  0  0  0
   21.3129   -0.0678    9.7390 O   0  0  0  0  0  0  0  0  0  0  0  0
   18.2341   -3.7785    8.6184 C   0  0  0  0  0  0  0  0  0  0  0  0
   17.1038   -3.4010    8.0600 O   0  0  0  0  0  0  0  0  0  0  0  0
   19.2351   -4.1271    7.5307 C   0  0  0  0  0  0  0  0  0  0  0  0
   17.5035   -5.0176    9.4473 C   0  0  0  0  0  0  0  0  0  0  0  0
  1  2  1  0
  1  3  1  0
  3  4  1  0
  4  5  1  6
  6  2  1  6
  4  7  1  0
  6  7  1  0
  6  8  1  0
  8  9  2  3
  9 10  1  0
 10 11  1  0
 10 12  1  1
 12 13  1  0
 13 14  1  0
 10 15  1  0
 15 14  1  6
 11 16  1  0
 11 17  1  0
 17 18  1  0
 18 19  1  0
 19 20  1  0
 16 21  1  0
 15 22  1  0
 21 22  1  0
 20 23  1  0
 17 24  1  0
 23 24  1  0
 22 25  1  0
 25 26  1  0
 26 27  1  1
 21 28  2  0
 26 29  1  0
 29 30  1  0
 29 31  1  0
 29 32  1  0
M  END
$$$$
8
     RDKit          3D

 15 16  0  0  0  0  0  0  0  0999 V2000
   21.0172    0.6204   11.3140 O   0  0  0  0  0  0  0  0  0  0  0  0
   19.8020    0.5228   11.0127 C   0  0  0  0  0  0  0  0  0  0  0  0
   19.1865   -0.6465   11.2049 C   0  0  1  0  0  0  0  0  0  0  0  0
   19.1955    1.7000   10.5110 C   0  0  1  0  0  0  0  0  0  0  0  0
   19.8579    3.0060   10.3749 N   0  0  0  0  0  0  0  0  0  0  0  0
   17.8199   -0.7264   10.8409 C   0  0  0  0  0  0  0  0  0  0  0  0
   19.7102   -1.9006   11.6243 C   0  0  0  0  0  0  0  0  0  0  0  0
   19.1129    4.1911   10.3993 C   0  0  0  0  0  0  0  0  0  0  0  0
   17.9702    1.6908    9.8689 C   0  0  1  0  0  0  0  0  0  0  0  0
   17.7890    4.1509    9.7913 C   0  0  2  0  0  0  0  0  0  0  0  0
   17.1465    0.4874   10.1942 C   0  0  1  0  0  0  0  0  0  0  0  0
   17.2658    2.7558    9.2687 C   0  0  0  0  0  0  0  0  0  0  0  0
   15.9547    0.3028    9.5979 O   0  0  0  0  0  0  0  0  0  0  0  0
   18.9938   -2.7862   12.1146 O   0  0  0  0  0  0  0  0  0  0  0  0
   17.4367    5.2175    9.1988 O   0  0  0  0  0  0  0  0  0  0  0  0
  1  2  1  0
  2  3  1  0
  2  4  1  0
  4  5  1  6
  3  6  1  0
  3  7  1  6
  5  8  1  0
  4  9  1  0
  8 10  1  0
  6 11  1  0
  9 11  1  0
  9 12  1  1
 10 12  1  0
 11 13  1  6
  7 14  1  0
 10 15  1  6
M  END
$$$$
80
     RDKit          3D

 32 36  0  0  0  0  0  0  0  0999 V2000
   18.7167   -1.7873   17.2486 C   0  0  0  0  0  0  0  0  0  0  0  0
   17.9033   -0.7595   17.6024 C   0  0  1  0  0  0  0  0  0  0  0  0
   18.8545   -2.1094   15.8726 C   0  0  0  0  0  0  0  0  0  0  0  0
   18.3986   -1.1293   14.9493 C   0  0  0  0  0  0  0  0  0  0  0  0
   17.7842   -0.3680   19.0069 C   0  0  0  0  0  0  0  0  0  0  0  0
   17.6444    0.2718   16.5621 C   0  0  0  0  0  0  0  0  0  0  0  0
   17.8732   -0.0378   15.3414 C   0  0  0  0  0  0  0  0  0  0  0  0
   17.4763    0.9222   14.2721 C   0  0  0  0  0  0  0  0  0  0  0  0
   17.5998    2.2626   14.4886 N   0  0  0  0  0  0  0  0  0  0  0  0
   16.9193    0.5538   13.0957 O   0  0  0  0  0  0  0  0  0  0  0  0
   17.3824    3.2301   13.4205 C   0  0  1  0  0  0  0  0  0  0  0  0
   17.4347    4.5598   13.8728 C   0  0  0  0  0  0  0  0  0  0  0  0
   17.7236    2.9869   12.0712 C   0  0  2  0  0  0  0  0  0  0  0  0
   17.6162    4.0534   11.1602 C   0  0  2  0  0  0  0  0  0  0  0  0
   17.9605    1.5570   11.4490 N   0  0  0  0  0  0  0  0  0  0  0  0
   17.7105    3.8228    9.6244 C   0  0  0  0  0  0  0  0  0  0  0  0
   17.3880    5.5788   12.9205 C   0  0  0  0  0  0  0  0  0  0  0  0
   17.5098    5.3146   11.5668 C   0  0  0  0  0  0  0  0  0  0  0  0
   17.9846    2.6016    9.1554 C   0  0  1  0  0  0  0  0  0  0  0  0
   18.2426    2.4185    7.8606 N   0  0  0  0  0  0  0  0  0  0  0  0
   18.6217    1.2008    7.4759 C   0  0  2  0  0  0  0  0  0  0  0  0
   18.1154    1.5643   10.1255 C   0  0  2  0  0  0  0  0  0  0  0  0
   18.3933    0.2693    9.5383 N   0  0  0  0  0  0  0  0  0  0  0  0
   18.7324    0.9990    6.0356 C   0  0  0  0  0  0  0  0  0  0  0  0
   18.5193   -0.2209    5.3924 C   0  0  1  0  0  0  0  0  0  0  0  0
   18.5928   -0.8374   10.4663 C   0  0  0  0  0  0  0  0  0  0  0  0
   20.0014   -1.3277   10.3405 C   0  0  0  0  0  0  0  0  0  0  0  0
   18.7343    0.0380    8.2797 C   0  0  1  0  0  0  0  0  0  0  0  0
   19.0940   -1.2009    7.7813 C   0  0  0  0  0  0  0  0  0  0  0  0
   18.5289   -0.4288    4.0268 C   0  0  0  0  0  0  0  0  0  0  0  0
   20.9405   -0.4072   10.1259 O   0  0  0  0  0  0  0  0  0  0  0  0
   18.8694   -1.3970    6.2446 C   0  0  0  0  0  0  0  0  0  0  0  0
  1  2  1  0
  1  3  1  0
  3  4  1  0
  2  5  1  1
  2  6  1  0
  4  7  1  0
  6  7  1  0
  7  8  1  0
  8  9  1  0
  8 10  2  0
 11  9  1  1
 11 12  1  0
 11 13  1  0
 13 14  1  0
 13 15  1  6
 14 16  1  6
 12 17  1  0
 14 18  1  0
 17 18  1  0
 19 16  1  1
 19 20  1  0
 20 21  1  0
 22 15  1  6
 19 22  1  0
 22 23  1  0
 21 24  1  6
 24 25  1  0
 23 26  1  0
 26 27  1  0
 21 28  1  0
 23 28  1  0
 28 29  1  6
 25 30  1  6
 27 31  1  0
 25 32  1  0
 29 32  1  0
M  END
$$$$
81
     RDKit          3D

 32 36  0  0  0  0  0  0  0  0999 V2000
   18.7167   -1.7873   17.2486 C   0  0  0  0  0  0  0  0  0  0  0  0
   17.9033   -0.7595   17.6024 C   0  0  1  0  0  0  0  0  0  0  0  0
   18.8545   -2.1094   15.8726 C   0  0  0  0  0  0  0  0  0  0  0  0
   18.3986   -1.1293   14.9493 C   0  0  0  0  0  0  0  0  0  0  0  0
   17.7842   -0.3680   19.0069 C   0  0  0  0  0  0  0  0  0  0  0  0
   17.6444    0.2718   16.5621 C   0  0  0  0  0  0  0  0  0  0  0  0
   17.8732   -0.0378   15.3414 C   0  0  0  0  0  0  0  0  0  0  0  0
   17.4763    0.9222   14.2721 C   0  0  0  0  0  0  0  0  0  0  0  0
   17.5998    2.2626   14.4886 N   0  0  0  0  0  0  0  0  0  0  0  0
   16.9193    0.5538   13.0957 O   0  0  0  0  0  0  0  0  0  0  0  0
   17.3824    3.2301   13.4205 C   0  0  1  0  0  0  0  0  0  0  0  0
   17.4347    4.5598   13.8728 C   0  0  0  0  0  0  0  0  0  0  0  0
   17.7236    2.9869   12.0712 C   0  0  2  0  0  0  0  0  0  0  0  0
   17.6162    4.0534   11.1602 C   0  0  2  0  0  0  0  0  0  0  0  0
   17.9605    1.5570   11.4490 N   0  0  0  0  0  0  0  0  0  0  0  0
   17.7105    3.8228    9.6244 C   0  0  0  0  0  0  0  0  0  0  0  0
   17.3880    5.5788   12.9205 C   0  0  0  0  0  0  0  0  0  0  0  0
   17.5098    5.3146   11.5668 C   0  0  0  0  0  0  0  0  0  0  0  0
   17.9846    2.6016    9.1554 C   0  0  1  0  0  0  0  0  0  0  0  0
   18.2426    2.4185    7.8606 N   0  0  0  0  0  0  0  0  0  0  0  0
   18.6217    1.2008    7.4759 C   0  0  2  0  0  0  0  0  0  0  0  0
   18.1154    1.5643   10.1255 C   0  0  0  0  0  0  0  0  0  0  0  0
   18.4766    0.3861    9.4625 C   0  0  2  0  0  0  0  0  0  0  0  0
   18.7147    1.0429    5.9941 N   0  0  0  0  0  0  0  0  0  0  0  0
   18.7255    2.1901    5.2032 C   0  0  0  0  0  0  0  0  0  0  0  0
   18.6448    0.1401    8.1971 C   0  0  1  0  0  0  0  0  0  0  0  0
   18.6029   -0.8700   10.4363 C   0  0  0  0  0  0  0  0  0  0  0  0
   18.5534   -0.2082    5.4602 C   0  0  0  0  0  0  0  0  0  0  0  0
   19.9081   -1.5967   10.1760 C   0  0  0  0  0  0  0  0  0  0  0  0
   18.0824   -1.2633    6.1256 C   0  0  0  0  0  0  0  0  0  0  0  0
   18.4378   -1.2279    7.5725 C   0  0  0  0  0  0  0  0  0  0  0  0
   20.9293   -0.7179   10.1237 O   0  0  0  0  0  0  0  0  0  0  0  0
  1  2  1  0
  1  3  1  0
  3  4  1  0
  2  5  1  1
  2  6  1  0
  4  7  1  0
  6  7  1  0
  7  8  1  0
  8  9  1  0
  8 10  2  0
 11  9  1  1
 11 12  1  0
 11 13  1  0
 13 14  1  0
 13 15  1  6
 14 16  1  6
 12 17  1  0
 14 18  1  0
 17 18  1  0
 19 16  1  1
 19 20  1  0
 21 20  1  6
 15 22  1  0
 19 22  1  0
 22 23  1  0
 21 24  1  0
 24 25  1  0
 21 26  1  0
 23 26  1  0
 23 27  1  6
 24 28  1  0
 27 29  1  0
 28 30  1  0
 26 31  1  6
 30 31  1  0
 29 32  1  0
M  END
$$$$
82
     RDKit          3D

 32 38  0  0  0  0  0  0  0  0999 V2000
   18.7669   -2.0629   15.8816 C   0  0  0  0  0  0  0  0  0  0  0  0
   18.2939   -1.4542   16.9168 C   0  0  0  0  0  0  0  0  0  0  0  0
   18.5140   -1.4731   14.6004 C   0  0  2  0  0  0  0  0  0  0  0  0
   18.9159   -1.9595   13.4056 C   0  0  0  0  0  0  0  0  0  0  0  0
   18.0068   -0.1594   14.8235 C   0  0  0  0  0  0  0  0  0  0  0  0
   17.7593    0.6187   13.5942 C   0  0  2  0  0  0  0  0  0  0  0  0
   18.6507   -1.1781   12.2583 C   0  0  0  0  0  0  0  0  0  0  0  0
   17.6155    0.6310   15.9694 C   0  0  0  0  0  0  0  0  0  0  0  0
   17.9199   -0.1899   17.1646 C   0  0  0  0  0  0  0  0  0  0  0  0
   18.9853   -1.6649   10.9655 N   0  0  0  0  0  0  0  0  0  0  0  0
   17.0984    1.8218   13.6510 O   0  0  0  0  0  0  0  0  0  0  0  0
   19.4803   -2.8034   10.7367 C   0  0  0  0  0  0  0  0  0  0  0  0
   17.8788    2.8401   13.1992 C   0  0  0  0  0  0  0  0  0  0  0  0
   18.8695   -3.8643   10.9311 O   0  0  0  0  0  0  0  0  0  0  0  0
   18.4957   -0.7002    9.8775 C   0  0  1  0  0  0  0  0  0  0  0  0
   20.3728   -2.8347    9.5632 N   0  0  0  0  0  0  0  0  0  0  0  0
   18.0623    0.1224   12.3678 C   0  0  0  0  0  0  0  0  0  0  0  0
   17.4335    3.4196   11.9083 C   0  0  0  0  0  0  0  0  0  0  0  0
   17.9233    0.5316   10.8608 C   0  0  1  0  0  0  0  0  0  0  0  0
   19.3837   -0.1042    8.9393 C   0  0  0  0  0  0  0  0  0  0  0  0
   16.5867    4.4073   11.8301 O   0  0  0  0  0  0  0  0  0  0  0  0
   18.8526    0.9936    8.3122 C   0  0  2  0  0  0  0  0  0  0  0  0
   20.5843   -0.7520    8.7911 N   0  0  0  0  0  0  0  0  0  0  0  0
   20.9578   -1.7153    9.4123 C   0  0  0  0  0  0  0  0  0  0  0  0
   19.4472    1.3442    6.9966 C   0  0  0  0  0  0  0  0  0  0  0  0
   17.6606    2.8936   10.6549 N   0  0  0  0  0  0  0  0  0  0  0  0
   18.0074    1.8854    8.7398 N   0  0  0  0  0  0  0  0  0  0  0  0
   17.5641    3.7844    9.6344 C   0  0  0  0  0  0  0  0  0  0  0  0
   18.6998    2.2537    6.2489 C   0  0  0  0  0  0  0  0  0  0  0  0
   18.1881    3.1962    8.5547 C   0  0  0  0  0  0  0  0  0  0  0  0
   17.6215    1.6560   10.0855 C   0  0  1  0  0  0  0  0  0  0  0  0
   18.7352    2.2119    4.7922 C   0  0  0  0  0  0  0  0  0  0  0  0
  1  2  1  0
  3  1  1  1
  3  4  1  0
  3  5  1  0
  5  6  1  0
  4  7  1  0
  5  8  1  0
  2  9  1  0
  8  9  1  0
  7 10  1  0
  6 11  1  6
 10 12  1  0
 11 13  1  0
 12 14  2  0
 10 15  1  0
 12 16  1  0
  6 17  1  0
  7 17  1  0
 13 18  1  0
 15 19  1  0
 19 17  1  1
 15 20  1  6
 18 21  2  0
 20 22  1  0
 20 23  1  0
 16 24  1  0
 23 24  1  0
 22 25  1  1
 18 26  1  0
 22 27  1  0
 26 28  1  0
 25 29  1  0
 27 30  1  0
 28 30  1  0
 19 31  1  0
 31 26  1  1
 27 31  1  0
 29 32  1  0
M  END
$$$$
83
     RDKit          3D

 32 36  0  0  0  0  0  0  0  0999 V2000
   18.7669   -2.0629   15.8816 C   0  0  0  0  0  0  0  0  0  0  0  0
   18.2939   -1.4542   16.9168 C   0  0  0  0  0  0  0  0  0  0  0  0
   18.5140   -1.4731   14.6004 C   0  0  2  0  0  0  0  0  0  0  0  0
   18.9159   -1.9595   13.4056 C   0  0  0  0  0  0  0  0  0  0  0  0
   18.0068   -0.1594   14.8235 C   0  0  0  0  0  0  0  0  0  0  0  0
   17.7593    0.6187   13.5942 C   0  0  2  0  0  0  0  0  0  0  0  0
   18.6507   -1.1781   12.2583 C   0  0  0  0  0  0  0  0  0  0  0  0
   17.6155    0.6310   15.9694 C   0  0  0  0  0  0  0  0  0  0  0  0
   17.9199   -0.1899   17.1646 C   0  0  0  0  0  0  0  0  0  0  0  0
   18.9853   -1.6649   10.9655 N   0  0  0  0  0  0  0  0  0  0  0  0
   17.0984    1.8218   13.6510 O   0  0  0  0  0  0  0  0  0  0  0  0
   19.4803   -2.8034   10.7367 C   0  0  0  0  0  0  0  0  0  0  0  0
   17.8788    2.8401   13.1992 C   0  0  0  0  0  0  0  0  0  0  0  0
   17.8292    2.9406   11.7625 C   0  0  1  0  0  0  0  0  0  0  0  0
   18.0257    4.1555   11.1356 C   0  0  0  0  0  0  0  0  0  0  0  0
   18.0794    4.2051    9.7078 C   0  0  0  0  0  0  0  0  0  0  0  0
   19.2606   -0.9028    9.7784 C   0  0  2  0  0  0  0  0  0  0  0  0
   17.1628    5.2151   11.6884 C   0  0  0  0  0  0  0  0  0  0  0  0
   17.7934    1.6713   10.9739 C   0  0  0  0  0  0  0  0  0  0  0  0
   19.2439   -1.4541    8.6324 N   0  0  0  0  0  0  0  0  0  0  0  0
   17.7991    1.4238    9.8015 C   0  0  0  0  0  0  0  0  0  0  0  0
   17.9361   -1.7852    8.1375 C   0  0  0  0  0  0  0  0  0  0  0  0
   19.4109    4.7686   11.6947 C   0  0  0  0  0  0  0  0  0  0  0  0
   18.0301    0.1163   12.2762 C   0  0  1  0  0  0  0  0  0  0  0  0
   19.6903   -2.9373    9.1838 C   0  0  0  0  0  0  0  0  0  0  0  0
   17.5701    0.6293   11.0557 N   0  0  0  0  0  0  0  0  0  0  0  0
   17.4110   -0.5504    7.5506 C   0  0  0  0  0  0  0  0  0  0  0  0
   18.3569    0.3308    6.9514 O   0  0  0  0  0  0  0  0  0  0  0  0
   20.6419   -0.1928   10.0615 C   0  0  0  0  0  0  0  0  0  0  0  0
   20.7210    1.0640   10.4218 O   0  0  0  0  0  0  0  0  0  0  0  0
   17.9907    1.1130    5.7661 C   0  0  0  0  0  0  0  0  0  0  0  0
   18.9647    2.0801    5.5759 C   0  0  0  0  0  0  0  0  0  0  0  0
  1  2  1  0
  3  1  1  1
  3  4  1  0
  3  5  1  0
  5  6  1  0
  4  7  1  0
  5  8  1  0
  2  9  1  0
  8  9  1  0
  7 10  1  0
  6 11  1  6
 10 12  1  0
 11 13  1  0
 13 14  1  0
 14 15  1  6
 15 16  1  0
 10 17  1  0
 15 18  1  0
 14 19  1  0
 17 20  1  0
 19 21  2  0
 20 22  1  0
 15 23  1  0
  6 24  1  0
 24  7  1  1
 12 25  1  0
 20 25  1  0
 19 26  1  0
 21 26  1  0
 24 26  1  0
 22 27  1  0
 27 28  1  0
 17 29  1  1
 29 30  1  0
 28 31  1  0
 31 32  1  0
M  END
$$$$
84
     RDKit          3D

 32 37  0  0  0  0  0  0  0  0999 V2000
   17.9618    0.0112   18.4162 C   0  0  0  0  0  0  0  0  0  0  0  0
   17.4745    0.8812   17.4553 C   0  0  1  0  0  0  0  0  0  0  0  0
   17.3103    2.2036   17.7683 C   0  0  0  0  0  0  0  0  0  0  0  0
   18.1031   -1.3449   17.9141 C   0  0  0  0  0  0  0  0  0  0  0  0
   17.7712    0.4668   16.1194 C   0  0  1  0  0  0  0  0  0  0  0  0
   18.3063   -1.7116   16.7103 C   0  0  0  0  0  0  0  0  0  0  0  0
   18.1189   -0.7993   15.6886 C   0  0  0  0  0  0  0  0  0  0  0  0
   17.5244    3.1410   16.9370 N   0  0  0  0  0  0  0  0  0  0  0  0
   17.4077    1.4593   14.9914 C   0  0  2  0  0  0  0  0  0  0  0  0
   17.4964    1.1881   13.7292 C   0  0  0  0  0  0  0  0  0  0  0  0
   17.9417    2.1008   12.7816 C   0  0  2  0  0  0  0  0  0  0  0  0
   17.9543    2.7907   15.5416 C   0  0  1  0  0  0  0  0  0  0  0  0
   18.1586    3.4429   13.1413 C   0  0  1  0  0  0  0  0  0  0  0  0
   18.0187    1.6575   11.5447 C   0  0  1  0  0  0  0  0  0  0  0  0
   18.0436    3.8032   14.5661 C   0  0  2  0  0  0  0  0  0  0  0  0
   18.5782    4.7297   12.3042 C   0  0  0  0  0  0  0  0  0  0  0  0
   18.0350    2.4538   10.4320 C   0  0  0  0  0  0  0  0  0  0  0  0
   18.9316    0.5053   11.2981 N   0  0  0  0  0  0  0  0  0  0  0  0
   18.9568   -0.1185   10.1646 C   0  0  2  0  0  0  0  0  0  0  0  0
   19.9428   -1.1366   10.0579 C   0  0  1  0  0  0  0  0  0  0  0  0
   19.4425   -2.4173   10.0761 C   0  0  0  0  0  0  0  0  0  0  0  0
   18.3375    5.8440   12.7658 C   0  0  0  0  0  0  0  0  0  0  0  0
   18.3790    1.7838    9.2363 C   0  0  2  0  0  0  0  0  0  0  0  0
   20.8362   -0.9039    8.9855 O   0  0  0  0  0  0  0  0  0  0  0  0
   19.0124    0.8846    9.0571 N   0  0  0  0  0  0  0  0  0  0  0  0
   18.5697    2.6878    8.0998 O   0  0  0  0  0  0  0  0  0  0  0  0
   19.1295    2.2369    7.0066 C   0  0  0  0  0  0  0  0  0  0  0  0
   19.9573   -3.4641    9.4145 O   0  0  0  0  0  0  0  0  0  0  0  0
   19.2285    0.6585    7.6781 C   0  0  0  0  0  0  0  0  0  0  0  0
   18.2526   -2.5259   10.9970 O   0  0  0  0  0  0  0  0  0  0  0  0
   18.3064    6.1159   14.2393 C   0  0  0  0  0  0  0  0  0  0  0  0
   18.0920    5.1504   15.0275 C   0  0  0  0  0  0  0  0  0  0  0  0
  2  1  1  1
  2  3  1  0
  1  4  1  0
  2  5  1  0
  4  6  1  0
  5  7  1  6
  6  7  1  0
  3  8  1  0
  5  9  1  0
  9 10  1  6
 11 10  1  6
 12  8  1  1
  9 12  1  0
 11 13  1  0
 11 14  1  0
 12 15  1  0
 13 15  1  0
 13 16  1  1
 14 17  1  6
 14 18  1  0
 19 18  1  1
 19 20  1  0
 20 21  1  0
 16 22  1  0
 23 17  1  1
 20 24  1  6
 19 25  1  0
 23 25  1  0
 23 26  1  0
 26 27  1  0
 21 28  1  0
 25 29  1  0
 27 29  1  0
 21 30  2  0
 22 31  1  0
 15 32  1  1
 31 32  1  0
M  END
$$$$
85
     RDKit          3D

 32 36  0  0  0  0  0  0  0  0999 V2000
   17.9618    0.0112   18.4162 C   0  0  0  0  0  0  0  0  0  0  0  0
   17.4745    0.8812   17.4553 C   0  0  1  0  0  0  0  0  0  0  0  0
   17.3103    2.2036   17.7683 C   0  0  0  0  0  0  0  0  0  0  0  0
   18.1031   -1.3449   17.9141 C   0  0  0  0  0  0  0  0  0  0  0  0
   17.7712    0.4668   16.1194 C   0  0  1  0  0  0  0  0  0  0  0  0
   18.3063   -1.7116   16.7103 C   0  0  0  0  0  0  0  0  0  0  0  0
   18.1189   -0.7993   15.6886 C   0  0  0  0  0  0  0  0  0  0  0  0
   17.5244    3.1410   16.9370 N   0  0  0  0  0  0  0  0  0  0  0  0
   17.4077    1.4593   14.9914 C   0  0  2  0  0  0  0  0  0  0  0  0
   17.4964    1.1881   13.7292 C   0  0  0  0  0  0  0  0  0  0  0  0
   17.9417    2.1008   12.7816 C   0  0  2  0  0  0  0  0  0  0  0  0
   17.9543    2.7907   15.5416 C   0  0  1  0  0  0  0  0  0  0  0  0
   18.1586    3.4429   13.1413 C   0  0  1  0  0  0  0  0  0  0  0  0
   18.0187    1.6575   11.5447 C   0  0  1  0  0  0  0  0  0  0  0  0
   18.0436    3.8032   14.5661 C   0  0  0  0  0  0  0  0  0  0  0  0
   18.5782    4.7297   12.3042 C   0  0  0  0  0  0  0  0  0  0  0  0
   18.0350    2.4538   10.4320 C   0  0  0  0  0  0  0  0  0  0  0  0
   18.9316    0.5053   11.2981 N   0  0  0  0  0  0  0  0  0  0  0  0
   18.9568   -0.1185   10.1646 C   0  0  1  0  0  0  0  0  0  0  0  0
   19.9428   -1.1366   10.0579 C   0  0  0  0  0  0  0  0  0  0  0  0
   20.9962   -0.8603    9.4054 O   0  0  0  0  0  0  0  0  0  0  0  0
   17.5272   -0.7211    9.8868 C   0  0  0  0  0  0  0  0  0  0  0  0
   18.2925    5.8182   12.7881 O   0  0  0  0  0  0  0  0  0  0  0  0
   19.0552    4.4440   11.0757 N   0  0  0  0  0  0  0  0  0  0  0  0
   17.6403   -1.7860    9.0471 N   0  0  0  0  0  0  0  0  0  0  0  0
   17.7967   -1.6549    7.8028 C   0  0  0  0  0  0  0  0  0  0  0  0
   17.4388   -3.0077    9.7479 C   0  0  0  0  0  0  0  0  0  0  0  0
   16.5009   -0.2597   10.2568 O   0  0  0  0  0  0  0  0  0  0  0  0
   17.1827   -4.1148    8.8131 C   0  0  0  0  0  0  0  0  0  0  0  0
   17.6594   -3.9461    7.4866 C   0  0  0  0  0  0  0  0  0  0  0  0
   17.7467   -2.6638    6.8932 C   0  0  0  0  0  0  0  0  0  0  0  0
   18.0725    3.9034   10.3161 C   0  0  0  0  0  0  0  0  0  0  0  0
  2  1  1  1
  2  3  1  0
  1  4  1  0
  2  5  1  0
  4  6  1  0
  5  7  1  6
  6  7  1  0
  3  8  1  0
  5  9  1  0
  9 10  1  6
 11 10  1  6
  8 12  1  0
  9 12  1  0
 11 13  1  0
 11 14  1  0
 12 15  1  6
 13 15  1  1
 13 16  1  0
 14 17  1  0
 14 18  1  1
 18 19  1  0
 19 20  1  1
 20 21  1  0
 19 22  1  0
 16 23  2  0
 16 24  1  0
 22 25  1  0
 25 26  1  0
 25 27  1  0
 22 28  2  0
 27 29  1  0
 29 30  1  0
 26 31  1  0
 30 31  1  0
 17 32  1  0
 24 32  1  0
M  END
$$$$
86
     RDKit          3D

 32 36  0  0  0  0  0  0  0  0999 V2000
   17.9618    0.0112   18.4162 C   0  0  0  0  0  0  0  0  0  0  0  0
   17.4745    0.8812   17.4553 C   0  0  1  0  0  0  0  0  0  0  0  0
   17.3103    2.2036   17.7683 C   0  0  0  0  0  0  0  0  0  0  0  0
   18.1031   -1.3449   17.9141 C   0  0  0  0  0  0  0  0  0  0  0  0
   17.7712    0.4668   16.1194 C   0  0  1  0  0  0  0  0  0  0  0  0
   18.3063   -1.7116   16.7103 C   0  0  0  0  0  0  0  0  0  0  0  0
   18.1189   -0.7993   15.6886 C   0  0  2  0  0  0  0  0  0  0  0  0
   17.5244    3.1410   16.9370 N   0  0  0  0  0  0  0  0  0  0  0  0
   17.4077    1.4593   14.9914 C   0  0  0  0  0  0  0  0  0  0  0  0
   17.5327    2.8464   15.5498 C   0  0  0  0  0  0  0  0  0  0  0  0
   17.1069    1.2646   13.8606 N   0  0  0  0  0  0  0  0  0  0  0  0
   17.2516    0.1628   13.1162 C   0  0  1  0  0  0  0  0  0  0  0  0
   17.1581    0.1199   11.7274 C   0  0  0  0  0  0  0  0  0  0  0  0
   17.9893   -0.9116   13.6795 O   0  0  0  0  0  0  0  0  0  0  0  0
   17.8393   -0.8619   11.0164 N   0  0  0  0  0  0  0  0  0  0  0  0
   17.7092   -0.7671    9.6082 C   0  0  0  0  0  0  0  0  0  0  0  0
   17.0007    0.3684    9.2143 O   0  0  0  0  0  0  0  0  0  0  0  0
   18.3668   -1.3050   14.4732 C   0  0  2  0  0  0  0  0  0  0  0  0
   18.1026   -1.8152    8.8522 C   0  0  1  0  0  0  0  0  0  0  0  0
   19.0360   -2.5075   14.4574 O   0  0  0  0  0  0  0  0  0  0  0  0
   17.6714   -1.7960    7.6016 C   0  0  0  0  0  0  0  0  0  0  0  0
   19.7368   -1.8928    8.9641 C   0  0  0  0  0  0  0  0  0  0  0  0
   20.2699   -0.9253    9.9310 C   0  0  2  0  0  0  0  0  0  0  0  0
   19.0777   -1.4599   11.4339 C   0  0  0  0  0  0  0  0  0  0  0  0
   18.3925   -1.3262    6.4885 C   0  0  0  0  0  0  0  0  0  0  0  0
   20.4082    0.3248    9.7689 O   0  0  0  0  0  0  0  0  0  0  0  0
   17.9402   -0.3496    5.5069 C   0  0  0  0  0  0  0  0  0  0  0  0
   16.7696   -0.3155    5.2840 C   0  0  0  0  0  0  0  0  0  0  0  0
   18.8135    0.8305    5.4952 C   0  0  0  0  0  0  0  0  0  0  0  0
   18.3451    1.8134    4.8377 C   0  0  0  0  0  0  0  0  0  0  0  0
   17.0283    1.8404    4.3249 C   0  0  0  0  0  0  0  0  0  0  0  0
   16.2372    0.8304    4.6061 C   0  0  0  0  0  0  0  0  0  0  0  0
  2  1  1  1
  2  3  1  0
  1  4  1  0
  2  5  1  0
  4  6  1  0
  5  7  1  0
  7  6  1  1
  3  8  1  0
  5  9  1  6
  8 10  1  0
  9 10  1  0
  9 11  1  0
 11 12  1  0
 12 13  1  6
 12 14  1  0
 13 15  1  0
 15 16  1  0
 16 17  2  0
  7 18  1  0
 14 18  1  0
 16 19  1  0
 18 20  1  1
 19 21  1  6
 19 22  1  0
 22 23  1  0
 15 24  1  0
 23 24  1  0
 21 25  1  0
 23 26  1  6
 25 27  1  0
 27 28  1  0
 27 29  1  0
 29 30  1  0
 30 31  1  0
 28 32  1  0
 31 32  1  0
M  END
$$$$
87
     RDKit          3D

 32 39  0  0  0  0  0  0  0  0999 V2000
   17.9618    0.0112   18.4162 C   0  0  0  0  0  0  0  0  0  0  0  0
   17.4745    0.8812   17.4553 C   0  0  1  0  0  0  0  0  0  0  0  0
   17.3103    2.2036   17.7683 C   0  0  0  0  0  0  0  0  0  0  0  0
   18.1031   -1.3449   17.9141 C   0  0  2  0  0  0  0  0  0  0  0  0
   18.2488    3.1817   18.0157 C   0  0  0  0  0  0  0  0  0  0  0  0
   18.7913    3.6225   16.7684 C   0  0  0  0  0  0  0  0  0  0  0  0
   18.6993   -2.3197   18.7987 F   0  0  0  0  0  0  0  0  0  0  0  0
   18.7951    2.5868   15.6689 C   0  0  2  0  0  0  0  0  0  0  0  0
   18.8395   -1.4592   16.6624 C   0  0  0  0  0  0  0  0  0  0  0  0
   18.2806   -1.0133   15.6895 C   0  0  2  0  0  0  0  0  0  0  0  0
   18.7629    3.1852   14.3967 N   0  0  0  0  0  0  0  0  0  0  0  0
   18.5548   -1.2418   14.3485 C   0  0  0  0  0  0  0  0  0  0  0  0
   17.9390    0.5549   15.8398 C   0  0  2  0  0  0  0  0  0  0  0  0
   18.0369    1.5505   15.0728 C   0  0  2  0  0  0  0  0  0  0  0  0
   17.8157    1.5479   13.8038 N   0  0  0  0  0  0  0  0  0  0  0  0
   19.3226    4.6468   14.2635 C   0  0  0  0  0  0  0  0  0  0  0  0
   19.0151    5.1550   12.9018 C   0  0  0  0  0  0  0  0  0  0  0  0
   18.1071   -0.6111   13.2256 N   0  0  0  0  0  0  0  0  0  0  0  0
   18.9293    4.1720   11.9760 O   0  0  0  0  0  0  0  0  0  0  0  0
   18.2859    2.6135   13.3563 C   0  0  1  0  0  0  0  0  0  0  0  0
   17.9973    0.5524   12.8186 C   0  0  2  0  0  0  0  0  0  0  0  0
   17.7562    3.0844   12.0332 C   0  0  2  0  0  0  0  0  0  0  0  0
   19.2307   -2.4036   14.0873 O   0  0  0  0  0  0  0  0  0  0  0  0
   18.7319    0.9484   11.6456 C   0  0  2  0  0  0  0  0  0  0  0  0
   18.2380    2.1619   11.0049 C   0  0  0  0  0  0  0  0  0  0  0  0
   18.5493   -0.2614   10.6641 C   0  0  2  0  0  0  0  0  0  0  0  0
   18.1644    2.4887    9.6812 C   0  0  0  0  0  0  0  0  0  0  0  0
   18.4200    1.4802    8.7299 C   0  0  0  0  0  0  0  0  0  0  0  0
   19.5885   -1.1043   10.7774 N   0  0  0  0  0  0  0  0  0  0  0  0
   20.6083   -1.0561    9.8622 C   0  0  0  0  0  0  0  0  0  0  0  0
   18.6724    0.1776    9.1621 C   0  0  1  0  0  0  0  0  0  0  0  0
   19.8014   -0.6032    8.6951 N   0  0  0  0  0  0  0  0  0  0  0  0
  2  1  1  1
  2  3  1  0
  1  4  1  0
  3  5  1  0
  5  6  1  0
  4  7  1  1
  8  6  1  1
  4  9  1  0
 10  9  1  1
  8 11  1  0
 10 12  1  0
 13  2  1  1
 10 13  1  0
  8 14  1  0
 13 14  1  0
 14 15  1  6
 11 16  1  0
 16 17  1  0
 12 18  1  0
 17 19  1  0
 20 11  1  1
 15 20  1  0
 15 21  1  0
 21 18  1  1
 22 19  1  6
 20 22  1  0
 12 23  2  0
 21 24  1  0
 22 25  1  0
 24 25  1  6
 24 26  1  0
 25 27  1  0
 27 28  1  0
 26 29  1  1
 29 30  1  0
 26 31  1  0
 31 28  1  1
 30 32  1  0
 31 32  1  0
M  END
$$$$
88
     RDKit          3D

 32 37  0  0  0  0  0  0  0  0999 V2000
   18.1202    1.3032   17.9985 C   0  0  0  0  0  0  0  0  0  0  0  0
   17.7689    1.7286   16.8392 C   0  0  1  0  0  0  0  0  0  0  0  0
   18.2396   -0.0649   18.0329 C   0  0  0  0  0  0  0  0  0  0  0  0
   17.5554    3.1031   16.5587 N   0  0  0  0  0  0  0  0  0  0  0  0
   17.7634    0.8435   15.7280 C   0  0  2  0  0  0  0  0  0  0  0  0
   17.8388    3.4339   15.1641 C   0  0  0  0  0  0  0  0  0  0  0  0
   18.1542   -0.9641   17.0208 C   0  0  0  0  0  0  0  0  0  0  0  0
   17.9544   -0.4425   15.7726 C   0  0  0  0  0  0  0  0  0  0  0  0
   17.8750    2.2009   14.4103 C   0  0  2  0  0  0  0  0  0  0  0  0
   17.8296    1.6338   13.1534 C   0  0  1  0  0  0  0  0  0  0  0  0
   17.6069    0.5703   12.5766 C   0  0  2  0  0  0  0  0  0  0  0  0
   18.0528    2.8464   12.1579 C   0  0  0  0  0  0  0  0  0  0  0  0
   17.5564   -0.5536   13.5566 O   0  0  0  0  0  0  0  0  0  0  0  0
   17.9851   -1.1127   14.6000 C   0  0  0  0  0  0  0  0  0  0  0  0
   17.9925    0.2694   11.2840 C   0  0  0  0  0  0  0  0  0  0  0  0
   18.1441    2.5509   10.8004 C   0  0  1  0  0  0  0  0  0  0  0  0
   18.0120    1.2695   10.3563 C   0  0  1  0  0  0  0  0  0  0  0  0
   18.2388    3.9107    9.7874 Cl  0  0  0  0  0  0  0  0  0  0  0  0
   18.1296    1.0604    8.9061 C   0  0  0  0  0  0  0  0  0  0  0  0
   17.5392   -0.1297    8.3744 C   0  0  2  0  0  0  0  0  0  0  0  0
   18.7331    1.9540    8.1241 C   0  0  0  0  0  0  0  0  0  0  0  0
   16.7926   -1.1147    9.0960 O   0  0  0  0  0  0  0  0  0  0  0  0
   17.8360   -0.4700    7.0028 C   0  0  1  0  0  0  0  0  0  0  0  0
   17.2659   -2.4280    8.7692 C   0  0  0  0  0  0  0  0  0  0  0  0
   17.2041   -1.6211    6.4353 C   0  0  1  0  0  0  0  0  0  0  0  0
   17.6973   -1.9132    5.1159 C   0  0  0  0  0  0  0  0  0  0  0  0
   17.1745   -3.3029    9.7590 C   0  0  0  0  0  0  0  0  0  0  0  0
   17.5872   -2.7197    7.3842 C   0  0  0  0  0  0  0  0  0  0  0  0
   18.8115    1.6278    6.6882 C   0  0  2  0  0  0  0  0  0  0  0  0
   19.4108    2.6054    5.8192 F   0  0  0  0  0  0  0  0  0  0  0  0
   18.2935    0.5652    6.1523 C   0  0  0  0  0  0  0  0  0  0  0  0
   18.0117   -4.3523    9.6684 O   0  0  0  0  0  0  0  0  0  0  0  0
  2  1  1  6
  1  3  1  0
  2  4  1  0
  2  5  1  0
  4  6  1  0
  3  7  1  0
  5  8  1  1
  7  8  1  0
  5  9  1  0
  9  6  1  6
  9 10  1  0
 10 11  1  0
 10 12  1  6
 11 13  1  0
  8 14  1  0
 13 14  1  0
 11 15  1  6
 12 16  1  0
 15 17  1  0
 16 17  1  0
 16 18  1  6
 17 19  1  6
 19 20  1  0
 19 21  1  0
 20 22  1  1
 20 23  1  0
 22 24  1  0
 23 25  1  0
 25 26  1  6
 24 27  1  0
 24 28  2  0
 25 28  1  0
 21 29  1  0
 29 30  1  6
 23 31  1  6
 29 31  1  0
 27 32  2  0
M  END
$$$$
89
     RDKit          3D

 32 36  0  0  0  0  0  0  0  0999 V2000
   18.9584    1.9326    5.2255 C   0  0  0  0  0  0  0  0  0  0  0  0
   18.3617    1.0045    4.5806 C   0  0  0  0  0  0  0  0  0  0  0  0
   18.0870    0.0008    5.4624 C   0  0  0  0  0  0  0  0  0  0  0  0
   19.1712    2.0681    6.6078 C   0  0  0  0  0  0  0  0  0  0  0  0
   18.0946   -0.0585    6.7987 C   0  0  2  0  0  0  0  0  0  0  0  0
   18.7023    1.0425    7.3315 C   0  0  0  0  0  0  0  0  0  0  0  0
   18.6764    0.8725    8.7836 C   0  0  2  0  0  0  0  0  0  0  0  0
   19.2191    1.6474    9.7250 N   0  0  0  0  0  0  0  0  0  0  0  0
   18.9557    2.9012    9.8552 C   0  0  0  0  0  0  0  0  0  0  0  0
   18.5903   -0.5357    9.2894 C   0  0  2  0  0  0  0  0  0  0  0  0
   17.9974    3.5218    9.3033 O   0  0  0  0  0  0  0  0  0  0  0  0
   19.3733    0.9396   11.0116 C   0  0  2  0  0  0  0  0  0  0  0  0
   19.8472    3.7816   10.7762 C   0  0  0  0  0  0  0  0  0  0  0  0
   20.6720    0.8221   11.4428 N   0  0  0  0  0  0  0  0  0  0  0  0
   17.8417   -1.0997    7.7910 C   0  0  0  0  0  0  0  0  0  0  0  0
   18.7099   -0.4539   10.7247 C   0  0  1  0  0  0  0  0  0  0  0  0
   19.0757    4.5672   11.7514 C   0  0  0  0  0  0  0  0  0  0  0  0
   17.3232   -0.6722   11.2398 C   0  0  0  0  0  0  0  0  0  0  0  0
   18.9236    4.2143   12.9840 N   0  0  0  0  0  0  0  0  0  0  0  0
   17.7891    3.8863   13.4963 C   0  0  0  0  0  0  0  0  0  0  0  0
   19.7065   -1.4068   11.3611 C   0  0  0  0  0  0  0  0  0  0  0  0
   19.3700   -2.5859   11.7050 O   0  0  0  0  0  0  0  0  0  0  0  0
   21.0078   -0.8531   11.3072 N   0  0  0  0  0  0  0  0  0  0  0  0
   17.8567    3.0769   14.6804 C   0  0  0  0  0  0  0  0  0  0  0  0
   18.8075    2.0781   14.6911 O   0  0  0  0  0  0  0  0  0  0  0  0
   18.3824    0.8849   15.4670 C   0  0  1  0  0  0  0  0  0  0  0  0
   18.2122   -0.2706   14.9486 C   0  0  0  0  0  0  0  0  0  0  0  0
   18.3417    1.0351   16.8544 C   0  0  0  0  0  0  0  0  0  0  0  0
   17.9123   -1.4648   15.5622 C   0  0  0  0  0  0  0  0  0  0  0  0
   18.4328    2.3502   17.5279 C   0  0  0  0  0  0  0  0  0  0  0  0
   18.1625   -0.1049   17.7356 C   0  0  0  0  0  0  0  0  0  0  0  0
   18.0082   -1.3555   17.0751 C   0  0  0  0  0  0  0  0  0  0  0  0
  1  2  1  0
  2  3  1  0
  1  4  1  0
  5  3  1  6
  4  6  1  0
  5  6  1  0
  6  7  1  0
  7  8  1  1
  8  9  1  0
  7 10  1  0
  9 11  2  0
  8 12  1  0
  9 13  1  0
 12 14  1  6
  5 15  1  0
 10 15  1  1
 10 16  1  0
 12 16  1  0
 13 17  1  0
 16 18  1  1
 17 19  1  0
 19 20  1  0
 16 21  1  0
 21 22  2  0
 14 23  1  0
 21 23  1  0
 20 24  1  0
 24 25  1  0
 26 25  1  1
 26 27  1  0
 26 28  1  0
 27 29  1  0
 28 30  1  0
 28 31  1  0
 29 32  1  0
 31 32  1  0
M  END
$$$$
9
     RDKit          3D

 16 17  0  0  0  0  0  0  0  0999 V2000
   18.1202    1.3032   17.9985 C   0  0  0  0  0  0  0  0  0  0  0  0
   17.7689    1.7286   16.8392 C   0  0  0  0  0  0  0  0  0  0  0  0
   17.8955    3.0014   16.4397 C   0  0  0  0  0  0  0  0  0  0  0  0
   18.1056   -0.1428   18.4258 C   0  0  0  0  0  0  0  0  0  0  0  0
   17.8767    3.2770   15.0075 N   0  0  0  0  0  0  0  0  0  0  0  0
   17.1679    0.7785   15.8536 C   0  0  0  0  0  0  0  0  0  0  0  0
   17.1879   -0.6246   16.1464 C   0  0  0  0  0  0  0  0  0  0  0  0
   17.7189   -1.0887   17.3664 C   0  0  0  0  0  0  0  0  0  0  0  0
   18.0884    4.5592   14.5543 C   0  0  0  0  0  0  0  0  0  0  0  0
   18.4425    5.5143   15.2990 O   0  0  0  0  0  0  0  0  0  0  0  0
   17.9095    4.9180   13.1137 C   0  0  0  0  0  0  0  0  0  0  0  0
   17.6889    3.8855   12.2458 C   0  0  0  0  0  0  0  0  0  0  0  0
   19.0110    5.8126   12.5474 C   0  0  0  0  0  0  0  0  0  0  0  0
   19.0525    5.6647   11.1461 C   0  0  0  0  0  0  0  0  0  0  0  0
   18.5692    4.6276   10.5007 C   0  0  0  0  0  0  0  0  0  0  0  0
   17.7247    3.7843   11.0040 C   0  0  0  0  0  0  0  0  0  0  0  0
  1  2  1  0
  2  3  1  0
  1  4  1  0
  3  5  1  0
  2  6  1  0
  6  7  1  0
  4  8  1  0
  7  8  1  0
  5  9  1  0
  9 10  2  0
  9 11  1  0
 11 12  1  0
 11 13  1  0
 13 14  1  0
 14 15  1  0
 12 16  1  0
 15 16  1  0
M  END
$$$$
90
     RDKit          3D

 32 39  0  0  0  0  0  0  0  0999 V2000
   17.9618    0.0112   18.4162 C   0  0  0  0  0  0  0  0  0  0  0  0
   17.4745    0.8812   17.4553 C   0  0  1  0  0  0  0  0  0  0  0  0
   17.3103    2.2036   17.7683 C   0  0  0  0  0  0  0  0  0  0  0  0
   18.1031   -1.3449   17.9141 C   0  0  2  0  0  0  0  0  0  0  0  0
   18.2488    3.1817   18.0157 C   0  0  0  0  0  0  0  0  0  0  0  0
   18.7913    3.6225   16.7684 C   0  0  0  0  0  0  0  0  0  0  0  0
   18.6993   -2.3197   18.7987 F   0  0  0  0  0  0  0  0  0  0  0  0
   18.7951    2.5868   15.6689 C   0  0  2  0  0  0  0  0  0  0  0  0
   18.8395   -1.4592   16.6624 C   0  0  0  0  0  0  0  0  0  0  0  0
   18.2806   -1.0133   15.6895 C   0  0  2  0  0  0  0  0  0  0  0  0
   18.7629    3.1852   14.3967 N   0  0  0  0  0  0  0  0  0  0  0  0
   18.5548   -1.2418   14.3485 C   0  0  0  0  0  0  0  0  0  0  0  0
   17.9390    0.5549   15.8398 C   0  0  2  0  0  0  0  0  0  0  0  0
   18.0369    1.5505   15.0728 C   0  0  2  0  0  0  0  0  0  0  0  0
   17.8157    1.5479   13.8038 N   0  0  0  0  0  0  0  0  0  0  0  0
   19.3226    4.6468   14.2635 C   0  0  0  0  0  0  0  0  0  0  0  0
   19.0151    5.1550   12.9018 C   0  0  0  0  0  0  0  0  0  0  0  0
   18.1071   -0.6111   13.2256 N   0  0  0  0  0  0  0  0  0  0  0  0
   18.9293    4.1720   11.9760 O   0  0  0  0  0  0  0  0  0  0  0  0
   18.2859    2.6135   13.3563 C   0  0  1  0  0  0  0  0  0  0  0  0
   17.9973    0.5524   12.8186 C   0  0  2  0  0  0  0  0  0  0  0  0
   17.7562    3.0844   12.0332 C   0  0  2  0  0  0  0  0  0  0  0  0
   19.2307   -2.4036   14.0873 O   0  0  0  0  0  0  0  0  0  0  0  0
   18.7319    0.9484   11.6456 C   0  0  2  0  0  0  0  0  0  0  0  0
   18.2380    2.1619   11.0049 C   0  0  0  0  0  0  0  0  0  0  0  0
   18.5493   -0.2614   10.6641 C   0  0  2  0  0  0  0  0  0  0  0  0
   18.1644    2.4887    9.6812 C   0  0  0  0  0  0  0  0  0  0  0  0
   18.4200    1.4802    8.7299 C   0  0  0  0  0  0  0  0  0  0  0  0
   19.5885   -1.1043   10.7774 N   0  0  0  0  0  0  0  0  0  0  0  0
   20.6083   -1.0561    9.8622 C   0  0  0  0  0  0  0  0  0  0  0  0
   18.6724    0.1776    9.1621 C   0  0  1  0  0  0  0  0  0  0  0  0
   19.5709   -0.7820    8.6023 C   0  0  0  0  0  0  0  0  0  0  0  0
  2  1  1  1
  2  3  1  0
  1  4  1  0
  3  5  1  0
  5  6  1  0
  4  7  1  1
  8  6  1  1
  4  9  1  0
 10  9  1  1
  8 11  1  0
 10 12  1  0
 13  2  1  1
 10 13  1  0
  8 14  1  0
 13 14  1  0
 14 15  1  6
 11 16  1  0
 16 17  1  0
 12 18  1  0
 17 19  1  0
 20 11  1  1
 15 20  1  0
 15 21  1  0
 21 18  1  1
 22 19  1  6
 20 22  1  0
 12 23  2  0
 21 24  1  0
 22 25  1  0
 24 25  1  6
 24 26  1  0
 25 27  1  0
 27 28  1  0
 26 29  1  1
 29 30  1  0
 26 31  1  0
 31 28  1  1
 30 32  1  0
 31 32  1  0
M  END
$$$$
91
     RDKit          3D

 32 34  0  0  0  0  0  0  0  0999 V2000
   20.8522    0.3905   10.7967 O   0  0  0  0  0  0  0  0  0  0  0  0
   19.8548   -0.3149   10.2966 C   0  0  2  0  0  0  0  0  0  0  0  0
   18.5933    0.3763   10.5953 C   0  0  1  0  0  0  0  0  0  0  0  0
   19.8129   -1.6972   10.9343 C   0  0  1  0  0  0  0  0  0  0  0  0
   18.5805    1.6560   10.0649 N   0  0  0  0  0  0  0  0  0  0  0  0
   17.9136    2.6817   10.8110 C   0  0  0  0  0  0  0  0  0  0  0  0
   18.4967   -1.7589   11.3653 C   0  0  2  0  0  0  0  0  0  0  0  0
   19.2919    2.2404    9.0332 C   0  0  1  0  0  0  0  0  0  0  0  0
   18.0200    3.9363   10.2891 C   0  0  2  0  0  0  0  0  0  0  0  0
   17.1479    2.4730   11.9901 O   0  0  0  0  0  0  0  0  0  0  0  0
   17.7735   -0.8647   10.4113 C   0  0  2  0  0  0  0  0  0  0  0  0
   18.2693   -1.4745   12.6883 O   0  0  0  0  0  0  0  0  0  0  0  0
   19.1843   -1.0026   13.5775 C   0  0  0  0  0  0  0  0  0  0  0  0
   20.5333   -2.6457   10.0919 O   0  0  0  0  0  0  0  0  0  0  0  0
   17.8521   -1.0699    8.9504 O   0  0  0  0  0  0  0  0  0  0  0  0
   17.4607    5.1047   10.8234 C   0  0  0  0  0  0  0  0  0  0  0  0
   17.1967    5.2914   12.1482 C   0  0  0  0  0  0  0  0  0  0  0  0
   19.5587    1.5385    8.0010 N   0  0  0  0  0  0  0  0  0  0  0  0
   18.7042    3.8201    8.9501 S   0  0  0  0  0  0  0  0  0  0  0  0
   18.3321    5.6476   12.8872 C   0  0  0  0  0  0  0  0  0  0  0  0
   19.2958    4.7414   13.2666 N   0  0  0  0  0  0  0  0  0  0  0  0
   16.6787   -0.7931    8.3074 C   0  0  0  0  0  0  0  0  0  0  0  0
   18.6915   -0.9776   14.9920 C   0  0  1  0  0  0  0  0  0  0  0  0
   18.5332    6.8675   13.2109 O   0  0  0  0  0  0  0  0  0  0  0  0
   20.2454    5.0202   14.2377 C   0  0  0  0  0  0  0  0  0  0  0  0
   16.8610   -0.1671    6.9420 C   0  0  0  0  0  0  0  0  0  0  0  0
   18.8655   -2.1106   15.7735 C   0  0  0  0  0  0  0  0  0  0  0  0
   18.5243   -1.9310   17.0291 C   0  0  0  0  0  0  0  0  0  0  0  0
   18.0843   -0.7239   17.3502 C   0  0  0  0  0  0  0  0  0  0  0  0
   17.5611   -0.4266   18.7544 C   0  0  0  0  0  0  0  0  0  0  0  0
   18.3383    0.3186   15.3720 C   0  0  0  0  0  0  0  0  0  0  0  0
   17.9472    0.3991   16.7012 N   0  0  0  0  0  0  0  0  0  0  0  0
  2  1  1  1
  2  3  1  0
  2  4  1  0
  3  5  1  6
  5  6  1  0
  4  7  1  0
  5  8  1  0
  6  9  1  0
  6 10  1  0
  3 11  1  0
  7 11  1  0
  7 12  1  1
 12 13  1  0
  4 14  1  6
 11 15  1  6
  9 16  1  6
 16 17  1  0
  8 18  1  6
  8 19  1  0
  9 19  1  0
 17 20  1  0
 20 21  1  0
 15 22  1  0
 23 13  1  1
 20 24  2  0
 21 25  1  0
 22 26  1  0
 23 27  1  0
 27 28  1  0
 28 29  1  0
 29 30  1  0
 23 31  1  0
 29 32  1  0
 31 32  1  0
M  END
$$$$
92
     RDKit          3D

 32 33  0  0  0  0  0  0  0  0999 V2000
   17.9618    0.0112   18.4162 C   0  0  0  0  0  0  0  0  0  0  0  0
   17.4745    0.8812   17.4553 C   0  0  1  0  0  0  0  0  0  0  0  0
   17.3103    2.2036   17.7683 C   0  0  0  0  0  0  0  0  0  0  0  0
   18.1031   -1.3449   17.9141 C   0  0  0  0  0  0  0  0  0  0  0  0
   17.7712    0.4668   16.1194 C   0  0  1  0  0  0  0  0  0  0  0  0
   18.3063   -1.7116   16.7103 C   0  0  0  0  0  0  0  0  0  0  0  0
   18.1189   -0.7993   15.6886 C   0  0  0  0  0  0  0  0  0  0  0  0
   18.4087    3.0673   18.0077 C   0  0  0  0  0  0  0  0  0  0  0  0
   17.4415    1.5836   14.9861 C   0  0  0  0  0  0  0  0  0  0  0  0
   17.8992    4.3034   18.1441 O   0  0  0  0  0  0  0  0  0  0  0  0
   18.3803    1.6014   13.8997 N   0  0  0  0  0  0  0  0  0  0  0  0
   17.9901    0.9708   12.7334 C   0  0  0  0  0  0  0  0  0  0  0  0
   18.6340    1.2626   11.5572 C   0  0  2  0  0  0  0  0  0  0  0  0
   17.8071    1.6810   10.5106 C   0  0  2  0  0  0  0  0  0  0  0  0
   16.9740    0.1959   13.0921 O   0  0  0  0  0  0  0  0  0  0  0  0
   17.4120    2.9677   10.5802 C   0  0  0  0  0  0  0  0  0  0  0  0
   16.6640    0.6803   10.2414 O   0  0  0  0  0  0  0  0  0  0  0  0
   18.2367    4.0206   10.8242 C   0  0  1  0  0  0  0  0  0  0  0  0
   16.9585   -0.0666    9.1355 C   0  0  0  0  0  0  0  0  0  0  0  0
   19.6074    0.1356   11.2329 C   0  0  0  0  0  0  0  0  0  0  0  0
   19.7050   -1.0000   11.8863 O   0  0  0  0  0  0  0  0  0  0  0  0
   20.2705    0.3917   10.0743 O   0  0  0  0  0  0  0  0  0  0  0  0
   17.6931    5.3962   10.9548 C   0  0  0  0  0  0  0  0  0  0  0  0
   17.1126    0.4399    7.9407 O   0  0  0  0  0  0  0  0  0  0  0  0
   16.7274   -1.3527    9.4765 O   0  0  0  0  0  0  0  0  0  0  0  0
   18.4699    0.4135    7.2102 C   0  0  0  0  0  0  0  0  0  0  0  0
   18.9936    3.7051   12.1873 C   0  0  0  0  0  0  0  0  0  0  0  0
   19.5943    2.3810   11.9463 C   0  0  0  0  0  0  0  0  0  0  0  0
   18.2248    0.7152    5.8462 C   0  0  0  0  0  0  0  0  0  0  0  0
   16.8201    5.6874    9.9939 O   0  0  0  0  0  0  0  0  0  0  0  0
   18.7135    1.8547    5.2600 C   0  0  0  0  0  0  0  0  0  0  0  0
   16.8283    0.4675    5.4265 C   0  0  0  0  0  0  0  0  0  0  0  0
  1  2  1  0
  2  3  1  1
  1  4  1  0
  2  5  1  0
  4  6  1  0
  5  7  1  0
  6  7  1  0
  3  8  1  0
  5  9  1  6
  8 10  1  0
  9 11  1  0
 11 12  1  0
 13 12  1  1
 13 14  1  0
 12 15  2  0
 14 16  1  0
 14 17  1  1
 16 18  1  0
 17 19  1  0
 13 20  1  0
 20 21  1  0
 20 22  2  0
 18 23  1  1
 19 24  1  0
 19 25  2  0
 24 26  1  0
 18 27  1  0
 13 28  1  0
 27 28  1  0
 26 29  1  0
 23 30  1  0
 29 31  1  0
 29 32  1  0
M  END
$$$$
93
     RDKit          3D

 32 39  0  0  0  0  0  0  0  0999 V2000
   19.0881   -2.2270   16.7779 C   0  0  0  0  0  0  0  0  0  0  0  0
   18.6073   -1.2451   17.5844 C   0  0  0  0  0  0  0  0  0  0  0  0
   18.7304   -2.1944   15.4059 C   0  0  0  0  0  0  0  0  0  0  0  0
   18.1157   -1.0523   14.8506 C   0  0  0  0  0  0  0  0  0  0  0  0
   17.6583   -0.0433   15.7466 C   0  0  0  0  0  0  0  0  0  0  0  0
   17.9022   -0.1024   17.0757 C   0  0  0  0  0  0  0  0  0  0  0  0
   16.8987    1.1095   15.1936 C   0  0  0  0  0  0  0  0  0  0  0  0
   17.8530    2.1349   14.7188 N   0  0  0  0  0  0  0  0  0  0  0  0
   17.7460    2.6234   13.5988 C   0  0  2  0  0  0  0  0  0  0  0  0
   18.0420    1.9745   12.5412 N   0  0  0  0  0  0  0  0  0  0  0  0
   17.5331    4.0088   13.5231 N   0  0  0  0  0  0  0  0  0  0  0  0
   17.9411    2.7715   11.3630 C   0  0  0  0  0  0  0  0  0  0  0  0
   18.1614    0.5280   12.1836 C   0  0  1  0  0  0  0  0  0  0  0  0
   17.7048    4.1403   12.0268 C   0  0  1  0  0  0  0  0  0  0  0  0
   17.4762    5.5259   11.4056 C   0  0  0  0  0  0  0  0  0  0  0  0
   17.4526    5.3634    9.9757 C   0  0  0  0  0  0  0  0  0  0  0  0
   17.7668    4.1091    9.2726 C   0  0  0  0  0  0  0  0  0  0  0  0
   17.9664    2.9562    9.9887 C   0  0  0  0  0  0  0  0  0  0  0  0
   18.2611    1.6795    9.2242 C   0  0  2  0  0  0  0  0  0  0  0  0
   18.6644    0.4775    9.9830 N   0  0  0  0  0  0  0  0  0  0  0  0
   19.2959   -0.4666    9.1831 C   0  0  1  0  0  0  0  0  0  0  0  0
   19.7523   -1.6096    9.9063 C   0  0  0  0  0  0  0  0  0  0  0  0
   18.6528    0.0822   11.0492 N   0  0  0  0  0  0  0  0  0  0  0  0
   17.9404   -0.8756   13.3930 S   0  0  0  0  0  0  0  0  0  0  0  0
   19.3004   -1.1790   11.2324 N   0  0  0  0  0  0  0  0  0  0  0  0
   18.5254    1.2123    7.8918 C   0  0  1  0  0  0  0  0  0  0  0  0
   19.1216   -0.0993    7.8322 C   0  0  2  0  0  0  0  0  0  0  0  0
   18.0728    1.9289    6.7161 C   0  0  0  0  0  0  0  0  0  0  0  0
   18.1093    1.3885    5.5959 C   0  0  0  0  0  0  0  0  0  0  0  0
   18.7888    0.0310    5.3600 C   0  0  2  0  0  0  0  0  0  0  0  0
   18.7116   -0.6743    4.0582 C   0  0  0  0  0  0  0  0  0  0  0  0
   19.1295   -0.7013    6.5329 C   0  0  0  0  0  0  0  0  0  0  0  0
  1  2  1  0
  1  3  1  0
  3  4  1  0
  4  5  1  0
  2  6  1  0
  5  6  1  0
  5  7  1  0
  7  8  1  0
  9  8  1  1
  9 10  1  0
  9 11  1  0
 10 12  1  0
 10 13  1  0
 11 14  1  0
 12 14  1  0
 14 15  1  6
 15 16  1  0
 16 17  1  0
 12 18  1  0
 17 18  1  0
 19 18  1  1
 19 20  1  0
 20 21  1  0
 21 22  1  6
 13 23  1  0
 20 23  1  0
  4 24  1  0
 13 24  1  1
 22 25  1  0
 23 25  1  0
 19 26  1  0
 21 27  1  0
 26 27  1  0
 26 28  1  6
 28 29  1  0
 29 30  1  0
 30 31  1  6
 27 32  1  6
 30 32  1  0
M  END
$$$$
94
     RDKit          3D

 32 34  0  0  0  0  0  0  0  0999 V2000
   18.8315    2.1240    5.3008 C   0  0  0  0  0  0  0  0  0  0  0  0
   18.9989    1.7500    6.5359 C   0  0  0  0  0  0  0  0  0  0  0  0
   18.4689    0.4741    6.8768 C   0  0  1  0  0  0  0  0  0  0  0  0
   18.4697    1.3154    4.1932 C   0  0  0  0  0  0  0  0  0  0  0  0
   18.0866    0.0616    4.4822 C   0  0  2  0  0  0  0  0  0  0  0  0
   17.6420   -0.8212    3.4423 F   0  0  0  0  0  0  0  0  0  0  0  0
   17.9600   -0.5237    5.6774 C   0  0  0  0  0  0  0  0  0  0  0  0
   18.3953   -0.0490    8.1896 C   0  0  2  0  0  0  0  0  0  0  0  0
   18.2516   -1.3381    8.5063 O   0  0  0  0  0  0  0  0  0  0  0  0
   17.2296    0.5880    8.9908 O   0  0  0  0  0  0  0  0  0  0  0  0
   19.3634   -1.9759    8.9533 C   0  0  0  0  0  0  0  0  0  0  0  0
   17.0459    0.2678   10.1121 C   0  0  0  0  0  0  0  0  0  0  0  0
   17.4356    1.2337   11.1656 C   0  0  2  0  0  0  0  0  0  0  0  0
   20.1677   -1.1227    9.9639 C   0  0  0  0  0  0  0  0  0  0  0  0
   17.3420    2.4554   11.1939 O   0  0  0  0  0  0  0  0  0  0  0  0
   18.4603    0.5982   11.9433 O   0  0  0  0  0  0  0  0  0  0  0  0
   18.1204    3.4156   11.9918 C   0  0  0  0  0  0  0  0  0  0  0  0
   18.5835    0.3626   13.2998 C   0  0  2  0  0  0  0  0  0  0  0  0
   21.2847   -0.7298    9.4019 O   0  0  0  0  0  0  0  0  0  0  0  0
   18.8369   -0.9675   13.6213 C   0  0  2  0  0  0  0  0  0  0  0  0
   17.4618    4.1401   12.9005 C   0  0  0  0  0  0  0  0  0  0  0  0
   18.9323   -1.8812   12.7229 O   0  0  0  0  0  0  0  0  0  0  0  0
   18.1536    4.4373   14.0354 O   0  0  0  0  0  0  0  0  0  0  0  0
   18.3462   -1.0451   14.8886 C   0  0  2  0  0  0  0  0  0  0  0  0
   18.8613    4.3411   10.9850 C   0  0  0  0  0  0  0  0  0  0  0  0
   19.9606    3.8709   10.4066 O   0  0  0  0  0  0  0  0  0  0  0  0
   18.0175    0.2164   15.3926 C   0  0  2  0  0  0  0  0  0  0  0  0
   18.3918   -2.2445   15.8032 C   0  0  0  0  0  0  0  0  0  0  0  0
   18.3430    1.1853   14.2727 N   0  0  0  0  0  0  0  0  0  0  0  0
   18.1289   -2.0582   17.1263 C   0  0  0  0  0  0  0  0  0  0  0  0
   17.8617    0.4544   16.7904 C   0  0  0  0  0  0  0  0  0  0  0  0
   17.9370   -0.6971   17.6474 C   0  0  0  0  0  0  0  0  0  0  0  0
  1  2  1  0
  3  2  1  6
  1  4  1  0
  4  5  1  0
  5  6  1  1
  3  7  1  0
  5  7  1  0
  3  8  1  0
  8  9  1  6
  8 10  1  0
  9 11  1  0
 10 12  1  0
 13 12  1  6
 11 14  1  0
 13 15  1  0
 13 16  1  0
 15 17  1  0
 18 16  1  6
 14 19  1  0
 18 20  1  0
 17 21  1  0
 20 22  1  6
 21 23  1  0
 20 24  1  0
 17 25  1  0
 25 26  1  0
 24 27  1  0
 24 28  1  1
 18 29  1  0
 27 29  1  0
 28 30  1  0
 27 31  1  1
 30 32  1  0
 31 32  1  0
M  END
$$$$
95
     RDKit          3D

 32 38  0  0  0  0  0  0  0  0999 V2000
   16.6028   -4.4775    9.3104 C   0  0  0  0  0  0  0  0  0  0  0  0
   17.2116   -3.3166    9.2817 C   0  0  0  0  0  0  0  0  0  0  0  0
   18.2502   -2.8801    9.8692 C   0  0  0  0  0  0  0  0  0  0  0  0
   18.7433   -1.4733    9.7300 N   0  0  0  0  0  0  0  0  0  0  0  0
   18.2767   -0.7141    8.8425 C   0  0  1  0  0  0  0  0  0  0  0  0
   18.9311    0.6234    8.9293 C   0  0  1  0  0  0  0  0  0  0  0  0
   17.2002   -5.5159    9.0496 C   0  0  0  0  0  0  0  0  0  0  0  0
   17.4366   -1.0211    7.8308 O   0  0  0  0  0  0  0  0  0  0  0  0
   19.7513   -1.0286   10.8319 C   0  0  1  0  0  0  0  0  0  0  0  0
   17.5621   -0.4559    6.6497 C   0  0  0  0  0  0  0  0  0  0  0  0
   18.3790    1.6268    8.2054 O   0  0  0  0  0  0  0  0  0  0  0  0
   19.6916    0.3723   10.3652 C   0  0  1  0  0  0  0  0  0  0  0  0
   18.7045   -5.5549    9.5260 C   0  0  0  0  0  0  0  0  0  0  0  0
   19.1946   -4.2429    9.6142 C   0  0  0  0  0  0  0  0  0  0  0  0
   20.5275    1.2453   11.0570 C   0  0  1  0  0  0  0  0  0  0  0  0
   20.3147    2.6034   11.0336 N   0  0  0  0  0  0  0  0  0  0  0  0
   20.6061    0.7355   12.3586 O   0  0  0  0  0  0  0  0  0  0  0  0
   18.2877    0.9651    6.7745 C   0  0  2  0  0  0  0  0  0  0  0  0
   18.2186    1.9438    5.7803 C   0  0  1  0  0  0  0  0  0  0  0  0
   19.3056    0.3592   12.6074 C   0  0  2  0  0  0  0  0  0  0  0  0
   19.0923   -0.9376   12.1261 C   0  0  0  0  0  0  0  0  0  0  0  0
   18.1703    1.2737   12.4551 C   0  0  1  0  0  0  0  0  0  0  0  0
   17.2459    1.3135   13.4883 O   0  0  0  0  0  0  0  0  0  0  0  0
   18.1489    2.6842   12.1260 C   0  0  2  0  0  0  0  0  0  0  0  0
   19.1392    3.2069   11.3465 C   0  0  0  0  0  0  0  0  0  0  0  0
   17.1827   -0.8555    5.5044 C   0  0  0  0  0  0  0  0  0  0  0  0
   19.0601    4.6102   11.0083 C   0  0  0  0  0  0  0  0  0  0  0  0
   18.9799    3.1056    5.8741 F   0  0  0  0  0  0  0  0  0  0  0  0
   18.1084    1.3379    4.4579 C   0  0  0  0  0  0  0  0  0  0  0  0
   17.6318   -0.0326    4.3518 C   0  0  0  0  0  0  0  0  0  0  0  0
   17.7599    3.6283   12.9089 C   0  0  0  0  0  0  0  0  0  0  0  0
   17.9201    4.9525   12.3426 C   0  0  0  0  0  0  0  0  0  0  0  0
  1  2  1  0
  2  3  1  0
  3  4  1  0
  4  5  1  0
  5  6  1  0
  1  7  1  0
  5  8  1  6
  4  9  1  0
  8 10  1  0
  6 11  1  1
  6 12  1  0
  9 12  1  0
  7 13  1  0
  3 14  1  0
 13 14  1  0
 12 15  1  6
 15 16  1  1
 15 17  1  0
 10 18  1  0
 18 11  1  1
 18 19  1  0
 17 20  1  0
  9 21  1  1
 20 21  1  6
 20 22  1  0
 22 23  1  1
 22 24  1  0
 16 25  2  0
 24 25  1  0
 10 26  1  0
 25 27  1  0
 19 28  1  6
 19 29  1  0
 26 30  1  0
 29 30  1  0
 24 31  1  1
 27 32  1  0
 31 32  1  0
M  END
$$$$
96
     RDKit          3D

 33 37  0  0  0  0  0  0  0  0999 V2000
   17.9618    0.0112   18.4162 C   0  0  0  0  0  0  0  0  0  0  0  0
   17.4745    0.8812   17.4553 C   0  0  1  0  0  0  0  0  0  0  0  0
   17.3103    2.2036   17.7683 C   0  0  0  0  0  0  0  0  0  0  0  0
   18.1031   -1.3449   17.9141 C   0  0  0  0  0  0  0  0  0  0  0  0
   17.7712    0.4668   16.1194 C   0  0  1  0  0  0  0  0  0  0  0  0
   18.3063   -1.7116   16.7103 C   0  0  0  0  0  0  0  0  0  0  0  0
   18.1189   -0.7993   15.6886 C   0  0  2  0  0  0  0  0  0  0  0  0
   17.5244    3.1410   16.9370 N   0  0  0  0  0  0  0  0  0  0  0  0
   17.4077    1.4593   14.9914 C   0  0  0  0  0  0  0  0  0  0  0  0
   17.5327    2.8464   15.5498 C   0  0  0  0  0  0  0  0  0  0  0  0
   17.1069    1.2646   13.8606 N   0  0  0  0  0  0  0  0  0  0  0  0
   17.2516    0.1628   13.1162 C   0  0  1  0  0  0  0  0  0  0  0  0
   17.1581    0.1199   11.7274 C   0  0  0  0  0  0  0  0  0  0  0  0
   17.9893   -0.9116   13.6795 O   0  0  0  0  0  0  0  0  0  0  0  0
   17.8393   -0.8619   11.0164 N   0  0  0  0  0  0  0  0  0  0  0  0
   17.7092   -0.7671    9.6082 C   0  0  0  0  0  0  0  0  0  0  0  0
   17.0007    0.3684    9.2143 O   0  0  0  0  0  0  0  0  0  0  0  0
   18.3668   -1.3050   14.4732 C   0  0  2  0  0  0  0  0  0  0  0  0
   18.1026   -1.8152    8.8522 C   0  0  1  0  0  0  0  0  0  0  0  0
   19.0360   -2.5075   14.4574 O   0  0  0  0  0  0  0  0  0  0  0  0
   17.6714   -1.7960    7.6016 C   0  0  0  0  0  0  0  0  0  0  0  0
   19.7368   -1.8928    8.9641 C   0  0  0  0  0  0  0  0  0  0  0  0
   20.2699   -0.9253    9.9310 C   0  0  2  0  0  0  0  0  0  0  0  0
   19.0777   -1.4599   11.4339 C   0  0  0  0  0  0  0  0  0  0  0  0
   18.3925   -1.3262    6.4885 C   0  0  0  0  0  0  0  0  0  0  0  0
   20.4082    0.3248    9.7689 O   0  0  0  0  0  0  0  0  0  0  0  0
   17.9402   -0.3496    5.5069 C   0  0  1  0  0  0  0  0  0  0  0  0
   16.7696   -0.3155    5.2840 C   0  0  0  0  0  0  0  0  0  0  0  0
   18.8135    0.8305    5.4952 C   0  0  0  0  0  0  0  0  0  0  0  0
   18.4366    1.8901    4.6965 C   0  0  1  0  0  0  0  0  0  0  0  0
   19.3180    2.9679    4.3438 F   0  0  0  0  0  0  0  0  0  0  0  0
   17.1725    1.9172    4.0617 C   0  0  0  0  0  0  0  0  0  0  0  0
   16.2871    0.8457    4.4614 C   0  0  0  0  0  0  0  0  0  0  0  0
  2  1  1  1
  2  3  1  0
  1  4  1  0
  2  5  1  0
  4  6  1  0
  5  7  1  0
  7  6  1  1
  3  8  1  0
  5  9  1  6
  8 10  1  0
  9 10  1  0
  9 11  1  0
 11 12  1  0
 12 13  1  6
 12 14  1  0
 13 15  1  0
 15 16  1  0
 16 17  2  0
  7 18  1  0
 14 18  1  0
 16 19  1  0
 18 20  1  1
 19 21  1  6
 19 22  1  0
 22 23  1  0
 15 24  1  0
 23 24  1  0
 21 25  1  0
 23 26  1  6
 27 25  1  1
 27 28  1  0
 27 29  1  0
 29 30  1  0
 30 31  1  6
 30 32  1  0
 28 33  1  0
 32 33  1  0
M  END
$$$$
97
     RDKit          3D

 33 36  0  0  0  0  0  0  0  0999 V2000
   18.8579    1.8829    4.7669 C   0  0  0  0  0  0  0  0  0  0  0  0
   18.6818    1.4842    5.9171 C   0  0  2  0  0  0  0  0  0  0  0  0
   18.1017    0.2248    6.2468 C   0  0  1  0  0  0  0  0  0  0  0  0
   17.8160   -0.2171    7.5817 N   0  0  0  0  0  0  0  0  0  0  0  0
   18.9980    2.3385    7.0711 C   0  0  0  0  0  0  0  0  0  0  0  0
   17.4684   -0.8466    5.3240 C   0  0  0  0  0  0  0  0  0  0  0  0
   18.4773    0.9046    3.6128 C   0  0  0  0  0  0  0  0  0  0  0  0
   17.8940   -0.3526    3.9481 C   0  0  0  0  0  0  0  0  0  0  0  0
   18.7582    1.9174    8.3377 C   0  0  0  0  0  0  0  0  0  0  0  0
   18.1282    0.5853    8.5898 C   0  0  2  0  0  0  0  0  0  0  0  0
   18.0119    0.1255    9.9642 N   0  0  0  0  0  0  0  0  0  0  0  0
   16.7600   -0.3074   10.2594 C   0  0  0  0  0  0  0  0  0  0  0  0
   19.1409   -0.3240   10.7167 C   0  0  1  0  0  0  0  0  0  0  0  0
   18.8730   -0.4537   11.9868 O   0  0  0  0  0  0  0  0  0  0  0  0
   18.8125    0.6596   12.7866 C   0  0  2  0  0  0  0  0  0  0  0  0
   18.5191    0.3653   14.1123 C   0  0  1  0  0  0  0  0  0  0  0  0
   18.9341    1.8939   12.2710 C   0  0  0  0  0  0  0  0  0  0  0  0
   18.5463   -0.9716   14.6917 C   0  0  0  0  0  0  0  0  0  0  0  0
   18.5181    3.0508   13.0565 C   0  0  1  0  0  0  0  0  0  0  0  0
   18.2247   -1.0627   16.1648 C   0  0  1  0  0  0  0  0  0  0  0  0
   18.3042    2.7858   14.4379 C   0  0  0  0  0  0  0  0  0  0  0  0
   18.7403    4.3735   12.4489 C   0  0  0  0  0  0  0  0  0  0  0  0
   18.2552   -2.2988   16.7572 F   0  0  0  0  0  0  0  0  0  0  0  0
   17.9799    0.0537   16.8771 C   0  0  2  0  0  0  0  0  0  0  0  0
   19.6239    4.7856   12.0451 O   0  0  0  0  0  0  0  0  0  0  0  0
   17.6470   -0.0185   18.3228 C   0  0  0  0  0  0  0  0  0  0  0  0
   17.9455    1.3585   16.2901 C   0  0  0  0  0  0  0  0  0  0  0  0
   17.6034    5.1028   12.6413 O   0  0  0  0  0  0  0  0  0  0  0  0
   18.3047    1.4068   14.8975 C   0  0  1  0  0  0  0  0  0  0  0  0
   16.4437   -1.4387   10.8493 O   0  0  0  0  0  0  0  0  0  0  0  0
   15.7989    0.4790   10.1480 O   0  0  0  0  0  0  0  0  0  0  0  0
   19.9205   -1.3190    9.9255 C   0  0  0  0  0  0  0  0  0  0  0  0
   21.2386   -0.9344    9.6600 O   0  0  0  0  0  0  0  0  0  0  0  0
  2  1  1  6
  2  3  1  0
  3  4  1  0
  2  5  1  0
  3  6  1  6
  1  7  1  0
  6  8  1  0
  7  8  1  0
  5  9  1  0
  4 10  1  0
  9 10  1  0
 10 11  1  1
 11 12  1  0
 11 13  1  0
 13 14  1  0
 15 14  1  6
 15 16  1  0
 15 17  1  0
 16 18  1  1
 17 19  1  0
 18 20  1  0
 19 21  1  0
 19 22  1  1
 20 23  1  1
 20 24  1  0
 22 25  2  0
 24 26  1  6
 24 27  1  0
 22 28  1  0
 16 29  1  0
 29 21  1  6
 27 29  1  0
 12 30  1  0
 12 31  2  0
 13 32  1  6
 32 33  1  0
M  END
$$$$
98
     RDKit          3D

 33 39  0  0  0  0  0  0  0  0999 V2000
   18.1202    1.3032   17.9985 C   0  0  0  0  0  0  0  0  0  0  0  0
   17.7689    1.7286   16.8392 C   0  0  1  0  0  0  0  0  0  0  0  0
   17.8955    3.0014   16.4397 C   0  0  1  0  0  0  0  0  0  0  0  0
   17.3656    0.6445   15.8433 C   0  0  1  0  0  0  0  0  0  0  0  0
   18.5016    3.8905   17.2407 O   0  0  0  0  0  0  0  0  0  0  0  0
   18.4862    3.1893   14.9705 C   0  0  1  0  0  0  0  0  0  0  0  0
   17.7397    2.3107   13.9523 C   0  0  1  0  0  0  0  0  0  0  0  0
   18.3204    4.6891   14.6779 C   0  0  0  0  0  0  0  0  0  0  0  0
   18.1211   -0.0771   18.3082 C   0  0  0  0  0  0  0  0  0  0  0  0
   18.0174    2.6579   12.6556 C   0  0  0  0  0  0  0  0  0  0  0  0
   17.7634    0.8679   14.3203 C   0  0  0  0  0  0  0  0  0  0  0  0
   18.4057    3.6803   12.0959 N   0  0  0  0  0  0  0  0  0  0  0  0
   17.8366   -1.0945   17.4011 C   0  0  0  0  0  0  0  0  0  0  0  0
   18.8472    4.8374   13.1147 C   0  0  1  0  0  0  0  0  0  0  0  0
   17.4717   -0.7175   16.0701 C   0  0  0  0  0  0  0  0  0  0  0  0
   17.8045    1.5244   11.6565 O   0  0  0  0  0  0  0  0  0  0  0  0
   18.9098    3.8182   10.8632 C   0  0  1  0  0  0  0  0  0  0  0  0
   17.8534    1.7976   10.4033 C   0  0  1  0  0  0  0  0  0  0  0  0
   18.4257    2.8964   10.0137 C   0  0  2  0  0  0  0  0  0  0  0  0
   18.1267    0.6379    9.4964 C   0  0  2  0  0  0  0  0  0  0  0  0
   18.8424    5.3450   10.6319 O   0  0  0  0  0  0  0  0  0  0  0  0
   18.6253    3.1105    8.5912 C   0  0  0  0  0  0  0  0  0  0  0  0
   18.1033    0.8832    8.1681 C   0  0  1  0  0  0  0  0  0  0  0  0
   18.5092    2.1515    7.7235 C   0  0  0  0  0  0  0  0  0  0  0  0
   17.6360   -0.7786    9.9025 C   0  0  1  0  0  0  0  0  0  0  0  0
   18.1259   -0.2498    7.2534 N   0  0  0  0  0  0  0  0  0  0  0  0
   18.0361   -1.7378    8.9744 C   0  0  0  0  0  0  0  0  0  0  0  0
   17.8534   -1.1151   11.4201 C   0  0  0  0  0  0  0  0  0  0  0  0
   19.1863   -1.0558   11.8019 O   0  0  0  0  0  0  0  0  0  0  0  0
   18.0969    0.1298    5.9163 C   0  0  0  0  0  0  0  0  0  0  0  0
   18.8096    6.0173   11.8497 C   0  0  0  0  0  0  0  0  0  0  0  0
   17.9090   -1.4350    7.6790 C   0  0  0  0  0  0  0  0  0  0  0  0
   20.1509   -0.4028   11.1522 C   0  0  0  0  0  0  0  0  0  0  0  0
  2  1  1  6
  2  3  1  0
  2  4  1  0
  3  5  1  1
  3  6  1  0
  6  7  1  0
  6  8  1  6
  1  9  1  0
  7 10  1  0
  4 11  1  6
  7 11  1  6
 10 12  1  0
  9 13  1  0
 14  8  1  1
 12 14  1  0
  4 15  1  0
 13 15  1  0
 10 16  1  0
 12 17  1  0
 18 16  1  1
 17 19  1  0
 18 19  1  0
 18 20  1  0
 17 21  1  6
 19 22  1  6
 20 23  1  0
 22 24  1  0
 23 24  1  6
 20 25  1  6
 23 26  1  0
 25 27  1  0
 25 28  1  1
 28 29  1  0
 26 30  1  0
 14 31  1  0
 21 31  1  0
 26 32  1  0
 27 32  1  0
 29 33  1  0
M  END
$$$$
99
     RDKit          3D

 33 37  0  0  0  0  0  0  0  0999 V2000
   18.9584    1.9326    5.2255 C   0  0  0  0  0  0  0  0  0  0  0  0
   18.3617    1.0045    4.5806 C   0  0  0  0  0  0  0  0  0  0  0  0
   18.0870    0.0008    5.4624 C   0  0  0  0  0  0  0  0  0  0  0  0
   19.1712    2.0681    6.6078 C   0  0  0  0  0  0  0  0  0  0  0  0
   18.0946   -0.0585    6.7987 C   0  0  2  0  0  0  0  0  0  0  0  0
   18.7023    1.0425    7.3315 C   0  0  0  0  0  0  0  0  0  0  0  0
   18.6764    0.8725    8.7836 C   0  0  2  0  0  0  0  0  0  0  0  0
   19.2191    1.6474    9.7250 N   0  0  0  0  0  0  0  0  0  0  0  0
   18.9557    2.9012    9.8552 C   0  0  0  0  0  0  0  0  0  0  0  0
   18.5903   -0.5357    9.2894 C   0  0  2  0  0  0  0  0  0  0  0  0
   17.9974    3.5218    9.3033 O   0  0  0  0  0  0  0  0  0  0  0  0
   19.3733    0.9396   11.0116 C   0  0  2  0  0  0  0  0  0  0  0  0
   19.8472    3.7816   10.7762 C   0  0  0  0  0  0  0  0  0  0  0  0
   20.6720    0.8221   11.4428 N   0  0  0  0  0  0  0  0  0  0  0  0
   17.6869   -1.1934    7.7715 S   0  0  0  0  0  0  0  0  0  0  0  0
   18.7845   -0.6394   10.6128 C   0  0  0  0  0  0  0  0  0  0  0  0
   19.2388    5.0630   11.1628 C   0  0  0  0  0  0  0  0  0  0  0  0
   18.3991    4.9487   12.2867 C   0  0  0  0  0  0  0  0  0  0  0  0
   17.0363    5.1805   12.2001 C   0  0  0  0  0  0  0  0  0  0  0  0
   18.6608   -1.6305   11.5438 C   0  0  0  0  0  0  0  0  0  0  0  0
   18.6646   -1.3514   12.8698 C   0  0  1  0  0  0  0  0  0  0  0  0
   18.9335    4.5600   13.5973 C   0  0  0  0  0  0  0  0  0  0  0  0
   17.9019   -0.3446   13.4899 C   0  0  1  0  0  0  0  0  0  0  0  0
   19.3810   -2.2649   13.7539 C   0  0  0  0  0  0  0  0  0  0  0  0
   17.1792    0.6154   12.8429 C   0  0  0  0  0  0  0  0  0  0  0  0
   18.8999   -2.0978   15.1827 C   0  0  0  0  0  0  0  0  0  0  0  0
   17.9686    4.4477   14.6682 C   0  0  0  0  0  0  0  0  0  0  0  0
   18.1135   -1.1283   15.6406 C   0  0  2  0  0  0  0  0  0  0  0  0
   17.7743   -1.1107   17.1455 C   0  0  0  0  0  0  0  0  0  0  0  0
   17.5592   -0.2427   14.8424 C   0  0  0  0  0  0  0  0  0  0  0  0
   18.3174   -0.4176   18.0804 C   0  0  0  0  0  0  0  0  0  0  0  0
   16.2347    5.0844   13.3203 C   0  0  0  0  0  0  0  0  0  0  0  0
   16.6938    4.7189   14.5115 C   0  0  0  0  0  0  0  0  0  0  0  0
  1  2  1  0
  2  3  1  0
  1  4  1  0
  5  3  1  6
  4  6  1  0
  5  6  1  0
  6  7  1  0
  7  8  1  1
  8  9  1  0
  7 10  1  0
  9 11  2  0
  8 12  1  0
  9 13  1  0
 12 14  1  6
  5 15  1  0
 10 15  1  1
 10 16  1  0
 12 16  1  0
 13 17  1  0
 17 18  1  0
 18 19  1  0
 16 20  1  0
 21 20  1  6
 18 22  1  0
 21 23  1  0
 21 24  1  0
 23 25  1  6
 24 26  1  0
 22 27  1  0
 26 28  1  0
 28 29  1  6
 23 30  1  0
 28 30  1  0
 29 31  1  0
 19 32  1  0
 27 33  1  0
 32 33  1  0
M  END
$$$$
