0
     RDKit          3D

 13 15  0  0  0  0  0  0  0  0999 V2000
   18.3705   88.4740   74.3376 C   0  0  0  0  0  0  0  0  0  0  0  0
   18.9449   88.9259   73.1725 C   0  0  0  0  0  0  0  0  0  0  0  0
   18.8126   89.0738   75.4057 C   0  0  0  0  0  0  0  0  0  0  0  0
   20.1809   89.6728   73.1770 N   0  0  0  0  0  0  0  0  0  0  0  0
   20.5295   90.0112   74.2904 C   0  0  0  0  0  0  0  0  0  0  0  0
   21.7835   90.8093   74.2666 N   0  0  0  0  0  0  0  0  0  0  0  0
   19.9750   89.8406   75.4545 C   0  0  0  0  0  0  0  0  0  0  0  0
   20.5033   90.3514   76.7992 C   0  0  0  0  0  0  0  0  0  0  0  0
   22.4391   91.1256   73.0850 C   0  0  0  0  0  0  0  0  0  0  0  0
   22.1307   91.7601   75.1588 C   0  0  1  0  0  0  0  0  0  0  0  0
   21.5768   91.2965   76.6521 C   0  0  0  0  0  0  0  0  0  0  0  0
   23.4458   92.0496   73.3074 N   0  0  0  0  0  0  0  0  0  0  0  0
   23.2222   92.3976   74.6927 C   0  0  0  0  0  0  0  0  0  0  0  0
  1  2  1  0
  1  3  1  0
  2  4  1  0
  4  5  1  0
  5  6  1  0
  3  7  1  0
  5  7  1  0
  7  8  1  0
  6  9  1  0
  6 10  1  0
  8 11  1  0
 10 11  1  1
  9 12  1  0
 10 13  1  0
 12 13  1  0
M  END
$$$$
1
     RDKit          3D

 13 14  0  0  0  0  0  0  0  0999 V2000
   18.8365   88.1493   75.5845 C   0  0  0  0  0  0  0  0  0  0  0  0
   19.8099   88.6508   76.2693 C   0  0  0  0  0  0  0  0  0  0  0  0
   20.0329   90.0288   76.1441 N   0  0  0  0  0  0  0  0  0  0  0  0
   18.3214   88.9558   74.5385 C   0  0  0  0  0  0  0  0  0  0  0  0
   19.6849   90.7278   75.0517 C   0  0  0  0  0  0  0  0  0  0  0  0
   20.9120   90.7846   77.1564 C   0  0  0  0  0  0  0  0  0  0  0  0
   21.4444   91.8749   76.6789 O   0  0  0  0  0  0  0  0  0  0  0  0
   17.3946   88.4289   73.5706 O   0  0  0  0  0  0  0  0  0  0  0  0
   18.6442   90.2661   74.4092 C   0  0  0  0  0  0  0  0  0  0  0  0
   20.3290   90.8739   78.4860 O   0  0  0  0  0  0  0  0  0  0  0  0
   21.1886   92.5068   75.6502 C   0  0  0  0  0  0  0  0  0  0  0  0
   20.5044   91.8678   74.8308 C   0  0  0  0  0  0  0  0  0  0  0  0
   22.0505   93.5330   75.2962 O   0  0  0  0  0  0  0  0  0  0  0  0
  1  2  1  0
  2  3  1  0
  1  4  1  0
  3  5  1  0
  3  6  1  0
  6  7  1  0
  4  8  1  0
  4  9  1  0
  5  9  1  0
  6 10  2  0
  7 11  1  0
  5 12  1  0
 11 12  1  0
 11 13  2  0
M  END
$$$$
10
     RDKit          3D

 17 19  0  0  0  0  0  0  0  0999 V2000
   25.0507   89.7858   72.6233 C   0  0  0  0  0  0  0  0  0  0  0  0
   23.9819   89.8747   73.2938 N   0  0  0  0  0  0  0  0  0  0  0  0
   23.0210   88.9349   73.4104 C   0  0  0  0  0  0  0  0  0  0  0  0
   24.1702   91.0517   74.2268 C   0  0  2  0  0  0  0  0  0  0  0  0
   25.3770   88.5477   72.0443 O   0  0  0  0  0  0  0  0  0  0  0  0
   26.1079   90.8037   72.7772 N   0  0  0  0  0  0  0  0  0  0  0  0
   23.0965   91.4196   74.9292 C   0  0  2  0  0  0  0  0  0  0  0  0
   23.0455   92.6048   75.6409 C   0  0  0  0  0  0  0  0  0  0  0  0
   23.9991   93.5854   75.1128 C   0  0  0  0  0  0  0  0  0  0  0  0
   25.3666   91.6350   73.6842 C   0  0  2  0  0  0  0  0  0  0  0  0
   21.7798   89.6979   73.8033 C   0  0  0  0  0  0  0  0  0  0  0  0
   22.0063   90.3783   75.1799 C   0  0  2  0  0  0  0  0  0  0  0  0
   25.8079   93.0141   74.2122 C   0  0  0  0  0  0  0  0  0  0  0  0
   20.7010   90.9655   75.6888 C   0  0  0  0  0  0  0  0  0  0  0  0
   25.3449   93.5651   75.1530 C   0  0  0  0  0  0  0  0  0  0  0  0
   20.6299   91.0714   76.8804 O   0  0  0  0  0  0  0  0  0  0  0  0
   20.5932   89.9380   77.7602 C   0  0  0  0  0  0  0  0  0  0  0  0
  1  2  1  0
  2  3  1  0
  4  2  1  6
  1  5  2  0
  1  6  1  0
  4  7  1  0
  7  8  1  1
  8  9  1  0
  4 10  1  0
  6 10  1  0
  3 11  1  0
  7 12  1  0
 11 12  1  0
 10 13  1  1
 12 14  1  6
  9 15  1  0
 13 15  1  0
 14 16  1  0
 16 17  1  0
M  END
$$$$
100
     RDKit          3D

 22 24  0  0  0  0  0  0  0  0999 V2000
   25.0507   89.7858   72.6233 C   0  0  1  0  0  0  0  0  0  0  0  0
   23.9819   89.8747   73.2938 N   0  0  0  0  0  0  0  0  0  0  0  0
   26.0743   90.7326   72.8932 N   0  0  0  0  0  0  0  0  0  0  0  0
   25.4794   88.4498   72.1279 N   0  0  0  0  0  0  0  0  0  0  0  0
   25.7267   91.8898   73.5132 C   0  0  0  0  0  0  0  0  0  0  0  0
   26.7014   92.8496   73.6518 O   0  0  0  0  0  0  0  0  0  0  0  0
   24.4441   92.1104   74.0078 C   0  0  2  0  0  0  0  0  0  0  0  0
   23.5602   91.0869   73.8687 C   0  0  2  0  0  0  0  0  0  0  0  0
   24.1829   93.4717   74.5704 C   0  0  0  0  0  0  0  0  0  0  0  0
   22.3463   91.3977   74.4130 N   0  0  0  0  0  0  0  0  0  0  0  0
   24.8998   94.3930   74.7024 O   0  0  0  0  0  0  0  0  0  0  0  0
   22.8846   93.5143   75.0334 N   0  0  0  0  0  0  0  0  0  0  0  0
   21.9365   92.5038   74.9162 C   0  0  0  0  0  0  0  0  0  0  0  0
   21.4208   90.2544   74.4388 C   0  0  1  0  0  0  0  0  0  0  0  0
   21.3205   89.7614   75.7337 O   0  0  0  0  0  0  0  0  0  0  0  0
   20.0430   90.5603   73.8474 C   0  0  2  0  0  0  0  0  0  0  0  0
   20.9158   92.8429   75.5981 O   0  0  0  0  0  0  0  0  0  0  0  0
   19.9767   89.7007   76.3142 C   0  0  1  0  0  0  0  0  0  0  0  0
   19.1841   89.6954   74.9494 C   0  0  1  0  0  0  0  0  0  0  0  0
   19.7550   88.4011   77.0103 C   0  0  0  0  0  0  0  0  0  0  0  0
   19.8228   89.9356   72.5550 O   0  0  0  0  0  0  0  0  0  0  0  0
   17.9079   90.3212   74.8369 O   0  0  0  0  0  0  0  0  0  0  0  0
  1  2  1  0
  1  3  1  0
  1  4  1  1
  3  5  1  0
  5  6  2  0
  7  5  1  6
  8  2  1  1
  7  8  1  0
  7  9  1  0
  8 10  1  0
  9 11  2  0
  9 12  1  0
 10 13  1  0
 12 13  1  0
 14 10  1  1
 14 15  1  0
 14 16  1  0
 13 17  2  0
 15 18  1  0
 16 19  1  0
 18 19  1  0
 18 20  1  6
 16 21  1  6
 19 22  1  1
M  END
$$$$
101
     RDKit          3D

 22 24  0  0  0  0  0  0  0  0999 V2000
   25.0507   89.7858   72.6233 C   0  0  1  0  0  0  0  0  0  0  0  0
   23.9819   89.8747   73.2938 N   0  0  0  0  0  0  0  0  0  0  0  0
   26.0743   90.7326   72.8932 N   0  0  0  0  0  0  0  0  0  0  0  0
   25.4794   88.4498   72.1279 N   0  0  0  0  0  0  0  0  0  0  0  0
   25.7267   91.8898   73.5132 C   0  0  0  0  0  0  0  0  0  0  0  0
   26.7014   92.8496   73.6518 O   0  0  0  0  0  0  0  0  0  0  0  0
   24.4441   92.1104   74.0078 C   0  0  2  0  0  0  0  0  0  0  0  0
   23.5602   91.0869   73.8687 C   0  0  2  0  0  0  0  0  0  0  0  0
   24.1829   93.4717   74.5704 C   0  0  0  0  0  0  0  0  0  0  0  0
   22.3463   91.3977   74.4130 N   0  0  0  0  0  0  0  0  0  0  0  0
   24.8998   94.3930   74.7024 O   0  0  0  0  0  0  0  0  0  0  0  0
   22.8846   93.5143   75.0334 N   0  0  0  0  0  0  0  0  0  0  0  0
   21.9365   92.5038   74.9162 C   0  0  0  0  0  0  0  0  0  0  0  0
   21.4208   90.2544   74.4388 C   0  0  1  0  0  0  0  0  0  0  0  0
   21.3205   89.7614   75.7337 O   0  0  0  0  0  0  0  0  0  0  0  0
   20.0430   90.5603   73.8474 C   0  0  2  0  0  0  0  0  0  0  0  0
   20.9158   92.8429   75.5981 O   0  0  0  0  0  0  0  0  0  0  0  0
   19.9767   89.7007   76.3142 C   0  0  1  0  0  0  0  0  0  0  0  0
   19.1841   89.6954   74.9494 C   0  0  2  0  0  0  0  0  0  0  0  0
   19.7550   88.4011   77.0103 C   0  0  0  0  0  0  0  0  0  0  0  0
   18.9332   88.3567   74.3626 C   0  0  0  0  0  0  0  0  0  0  0  0
   19.4592   90.4093   72.5873 O   0  0  0  0  0  0  0  0  0  0  0  0
  1  2  1  0
  1  3  1  0
  1  4  1  1
  3  5  1  0
  5  6  2  0
  7  5  1  6
  8  2  1  1
  7  8  1  0
  7  9  1  0
  8 10  1  0
  9 11  2  0
  9 12  1  0
 10 13  1  0
 12 13  1  0
 14 10  1  1
 14 15  1  0
 14 16  1  0
 13 17  2  0
 15 18  1  0
 16 19  1  0
 18 19  1  0
 18 20  1  6
 19 21  1  6
 16 22  1  6
M  END
$$$$
102
     RDKit          3D

 22 23  0  0  0  0  0  0  0  0999 V2000
   21.0692   93.5042   75.4357 C   0  0  0  0  0  0  0  0  0  0  0  0
   20.7887   92.6296   76.4947 C   0  0  0  0  0  0  0  0  0  0  0  0
   21.5626   91.4080   76.6344 C   0  0  0  0  0  0  0  0  0  0  0  0
   22.5698   91.1743   75.6480 C   0  0  0  0  0  0  0  0  0  0  0  0
   21.3121   90.4214   77.7342 C   0  0  0  0  0  0  0  0  0  0  0  0
   22.1618   93.1514   74.6355 C   0  0  0  0  0  0  0  0  0  0  0  0
   22.8640   91.9933   74.7012 C   0  0  0  0  0  0  0  0  0  0  0  0
   19.9796   89.9268   77.7048 C   0  0  0  0  0  0  0  0  0  0  0  0
   23.9865   91.8372   73.6459 C   0  0  2  0  0  0  0  0  0  0  0  0
   19.4641   89.6802   76.4792 C   0  0  0  0  0  0  0  0  0  0  0  0
   18.1881   89.7833   76.2499 O   0  0  0  0  0  0  0  0  0  0  0  0
   20.1420   89.1247   75.3888 N   0  0  0  0  0  0  0  0  0  0  0  0
   24.1224   90.4238   73.3034 C   0  0  0  0  0  0  0  0  0  0  0  0
   19.6143   88.9784   74.0788 C   0  0  0  0  0  0  0  0  0  0  0  0
   24.9149   92.6767   73.4888 O   0  0  0  0  0  0  0  0  0  0  0  0
   20.5882   89.2737   73.0487 O   0  0  0  0  0  0  0  0  0  0  0  0
   25.5133   89.9012   73.1894 C   0  0  1  0  0  0  0  0  0  0  0  0
   26.4444   91.0617   73.1484 C   0  0  1  0  0  0  0  0  0  0  0  0
   26.1762   92.2346   73.6875 C   0  0  0  0  0  0  0  0  0  0  0  0
   27.8538   90.8627   73.7072 O   0  0  0  0  0  0  0  0  0  0  0  0
   25.7715   89.2929   74.3830 O   0  0  0  0  0  0  0  0  0  0  0  0
   18.4947   88.5293   73.7883 O   0  0  0  0  0  0  0  0  0  0  0  0
  1  2  1  0
  2  3  1  0
  3  4  1  0
  3  5  1  0
  1  6  1  0
  4  7  1  0
  6  7  1  0
  5  8  1  0
  9  7  1  1
  8 10  1  0
 10 11  2  0
 10 12  1  0
  9 13  1  0
 12 14  1  0
  9 15  1  0
 14 16  1  0
 13 17  1  0
 17 18  1  0
 15 19  1  0
 18 19  1  0
 18 20  1  1
 17 21  1  1
 14 22  2  0
M  END
$$$$
103
     RDKit          3D

 22 25  0  0  0  0  0  0  0  0999 V2000
   25.7301   88.9262   72.7462 N   0  0  0  0  0  0  0  0  0  0  0  0
   25.4749   90.1046   73.1966 C   0  0  2  0  0  0  0  0  0  0  0  0
   26.4536   91.0349   73.3414 N   0  0  0  0  0  0  0  0  0  0  0  0
   24.1506   90.5397   73.6594 C   0  0  0  0  0  0  0  0  0  0  0  0
   23.9654   91.8154   74.1684 C   0  0  0  0  0  0  0  0  0  0  0  0
   24.6656   88.1224   72.9491 C   0  0  0  0  0  0  0  0  0  0  0  0
   27.7817   90.6891   73.0790 N   0  0  0  0  0  0  0  0  0  0  0  0
   28.4253   91.8732   73.5915 C   0  0  0  0  0  0  0  0  0  0  0  0
   26.1975   92.2320   74.0576 C   0  0  2  0  0  0  0  0  0  0  0  0
   23.3388   89.6827   73.5719 N   0  0  0  0  0  0  0  0  0  0  0  0
   24.9919   92.5312   74.2903 N   0  0  0  0  0  0  0  0  0  0  0  0
   22.5956   92.2911   74.5512 C   0  0  0  0  0  0  0  0  0  0  0  0
   22.4190   93.5483   74.7492 C   0  0  0  0  0  0  0  0  0  0  0  0
   23.4065   88.5607   73.1901 N   0  0  0  0  0  0  0  0  0  0  0  0
   27.4534   92.9944   74.1495 C   0  0  0  0  0  0  0  0  0  0  0  0
   21.5789   91.3377   74.6709 C   0  0  1  0  0  0  0  0  0  0  0  0
   21.8332   89.9415   74.0000 C   0  0  0  0  0  0  0  0  0  0  0  0
   20.9933   88.9978   73.9709 O   0  0  0  0  0  0  0  0  0  0  0  0
   20.6937   91.2286   75.5716 C   0  0  0  0  0  0  0  0  0  0  0  0
   20.9749   91.1203   77.0075 C   0  0  2  0  0  0  0  0  0  0  0  0
   21.2767   90.0329   77.5743 C   0  0  0  0  0  0  0  0  0  0  0  0
   19.8644   91.6293   77.8595 O   0  0  0  0  0  0  0  0  0  0  0  0
  2  1  1  1
  2  3  1  0
  2  4  1  0
  4  5  1  0
  1  6  1  0
  3  7  1  0
  7  8  1  0
  3  9  1  0
  4 10  1  0
  5 11  1  0
  9 11  1  0
  5 12  1  0
 12 13  1  0
  6 14  1  0
 10 14  1  0
  8 15  1  0
  9 15  1  6
 12 16  1  0
 10 17  1  0
 16 17  1  0
 17 18  2  0
 16 19  1  1
 19 20  1  0
 20 21  1  1
 20 22  1  0
M  END
$$$$
104
     RDKit          3D

 22 24  0  0  0  0  0  0  0  0999 V2000
   25.0507   89.7858   72.6233 C   0  0  1  0  0  0  0  0  0  0  0  0
   23.9819   89.8747   73.2938 N   0  0  0  0  0  0  0  0  0  0  0  0
   26.0743   90.7326   72.8932 N   0  0  0  0  0  0  0  0  0  0  0  0
   25.4794   88.4498   72.1279 N   0  0  0  0  0  0  0  0  0  0  0  0
   25.7267   91.8898   73.5132 C   0  0  0  0  0  0  0  0  0  0  0  0
   26.7014   92.8496   73.6518 O   0  0  0  0  0  0  0  0  0  0  0  0
   24.4441   92.1104   74.0078 C   0  0  2  0  0  0  0  0  0  0  0  0
   23.5602   91.0869   73.8687 C   0  0  2  0  0  0  0  0  0  0  0  0
   24.1829   93.4717   74.5704 C   0  0  0  0  0  0  0  0  0  0  0  0
   22.3463   91.3977   74.4130 N   0  0  0  0  0  0  0  0  0  0  0  0
   24.8998   94.3930   74.7024 O   0  0  0  0  0  0  0  0  0  0  0  0
   22.8846   93.5143   75.0334 N   0  0  0  0  0  0  0  0  0  0  0  0
   21.9365   92.5038   74.9162 C   0  0  0  0  0  0  0  0  0  0  0  0
   21.4208   90.2544   74.4388 C   0  0  0  0  0  0  0  0  0  0  0  0
   20.7205   92.6795   75.4595 O   0  0  0  0  0  0  0  0  0  0  0  0
   21.1203   89.7355   75.6569 C   0  0  0  0  0  0  0  0  0  0  0  0
   20.9588   89.7782   73.2180 O   0  0  0  0  0  0  0  0  0  0  0  0
   21.9131   89.7037   76.7053 C   0  0  1  0  0  0  0  0  0  0  0  0
   19.7851   89.1536   75.8901 C   0  0  0  0  0  0  0  0  0  0  0  0
   23.1961   90.3526   76.8298 C   0  0  0  0  0  0  0  0  0  0  0  0
   21.3119   89.0228   77.7386 C   0  0  0  0  0  0  0  0  0  0  0  0
   20.0490   88.5628   77.5194 C   0  0  0  0  0  0  0  0  0  0  0  0
  1  2  1  0
  1  3  1  0
  1  4  1  1
  3  5  1  0
  5  6  2  0
  7  5  1  6
  8  2  1  1
  7  8  1  0
  7  9  1  0
  8 10  1  0
  9 11  2  0
  9 12  1  0
 10 13  1  0
 12 13  1  0
 10 14  1  0
 13 15  2  0
 14 16  1  0
 14 17  2  0
 16 18  1  0
 16 19  1  0
 18 20  1  1
 18 21  1  0
 19 22  1  0
 21 22  1  0
M  END
$$$$
105
     RDKit          3D

 22 25  0  0  0  0  0  0  0  0999 V2000
   21.0692   93.5042   75.4357 C   0  0  0  0  0  0  0  0  0  0  0  0
   20.7887   92.6296   76.4947 C   0  0  0  0  0  0  0  0  0  0  0  0
   21.5626   91.4080   76.6344 C   0  0  0  0  0  0  0  0  0  0  0  0
   22.5698   91.1743   75.6480 C   0  0  0  0  0  0  0  0  0  0  0  0
   21.3121   90.4214   77.7342 C   0  0  0  0  0  0  0  0  0  0  0  0
   22.1618   93.1514   74.6355 C   0  0  0  0  0  0  0  0  0  0  0  0
   22.8640   91.9933   74.7012 C   0  0  0  0  0  0  0  0  0  0  0  0
   19.9796   89.9268   77.7048 C   0  0  0  0  0  0  0  0  0  0  0  0
   23.9865   91.8372   73.6459 C   0  0  1  0  0  0  0  0  0  0  0  0
   24.9995   92.6379   73.5868 N   0  0  0  0  0  0  0  0  0  0  0  0
   26.3008   92.3426   73.6956 C   0  0  1  0  0  0  0  0  0  0  0  0
   24.3541   90.3689   73.5676 C   0  0  2  0  0  0  0  0  0  0  0  0
   25.5885   90.0214   73.1178 C   0  0  1  0  0  0  0  0  0  0  0  0
   23.1764   89.2766   73.0598 C   0  0  0  0  0  0  0  0  0  0  0  0
   21.9891   89.9237   72.7378 O   0  0  0  0  0  0  0  0  0  0  0  0
   26.6535   90.9608   73.3508 C   0  0  2  0  0  0  0  0  0  0  0  0
   27.3567   93.3411   73.8710 C   0  0  0  0  0  0  0  0  0  0  0  0
   25.6561   88.6484   73.1848 N   0  0  0  0  0  0  0  0  0  0  0  0
   24.0122   88.2603   72.9291 C   0  0  0  0  0  0  0  0  0  0  0  0
   28.6635   92.7172   74.0681 C   0  0  0  0  0  0  0  0  0  0  0  0
   28.9082   91.4854   73.8372 C   0  0  0  0  0  0  0  0  0  0  0  0
   27.9123   90.5313   73.5344 N   0  0  0  0  0  0  0  0  0  0  0  0
  1  2  1  0
  2  3  1  0
  3  4  1  0
  3  5  1  0
  1  6  1  0
  4  7  1  0
  6  7  1  0
  5  8  1  0
  9  7  1  1
  9 10  1  0
 10 11  1  0
  9 12  1  0
 12 13  1  0
 12 14  1  6
 14 15  2  0
 11 16  1  0
 13 16  1  0
 11 17  1  6
 13 18  1  1
 14 19  1  0
 18 19  1  0
 17 20  1  0
 20 21  1  0
 16 22  1  1
 21 22  1  0
M  END
$$$$
106
     RDKit          3D

 22 24  0  0  0  0  0  0  0  0999 V2000
   25.0507   89.7858   72.6233 C   0  0  2  0  0  0  0  0  0  0  0  0
   23.9819   89.8747   73.2938 C   0  0  1  0  0  0  0  0  0  0  0  0
   22.9948   88.9238   73.3710 O   0  0  0  0  0  0  0  0  0  0  0  0
   21.7654   89.4674   73.6353 N   0  0  0  0  0  0  0  0  0  0  0  0
   23.6845   90.9745   74.1889 C   0  0  0  0  0  0  0  0  0  0  0  0
   25.4997   88.5216   72.1663 O   0  0  0  0  0  0  0  0  0  0  0  0
   26.2280   90.6329   73.3535 C   0  0  2  0  0  0  0  0  0  0  0  0
   20.5821   88.8940   73.5800 O   0  0  0  0  0  0  0  0  0  0  0  0
   22.1206   90.6252   74.5000 C   0  0  1  0  0  0  0  0  0  0  0  0
   21.3473   91.4173   75.3237 C   0  0  1  0  0  0  0  0  0  0  0  0
   24.5192   91.9391   74.5285 C   0  0  0  0  0  0  0  0  0  0  0  0
   25.8188   91.7794   73.9946 C   0  0  1  0  0  0  0  0  0  0  0  0
   20.0871   91.1649   75.6341 C   0  0  0  0  0  0  0  0  0  0  0  0
   21.9241   92.4920   75.9612 C   0  0  0  0  0  0  0  0  0  0  0  0
   27.4635   90.5195   72.8681 O   0  0  0  0  0  0  0  0  0  0  0  0
   26.7998   92.6581   74.3579 O   0  0  0  0  0  0  0  0  0  0  0  0
   19.2472   91.8656   76.5307 C   0  0  0  0  0  0  0  0  0  0  0  0
   17.8881   91.5417   76.9486 C   0  0  0  0  0  0  0  0  0  0  0  0
   17.3089   90.5801   76.4399 O   0  0  0  0  0  0  0  0  0  0  0  0
   19.9322   93.0622   77.0770 C   0  0  0  0  0  0  0  0  0  0  0  0
   17.1562   92.4726   77.4663 O   0  0  0  0  0  0  0  0  0  0  0  0
   21.1934   93.2486   76.8400 C   0  0  0  0  0  0  0  0  0  0  0  0
  1  2  1  0
  2  3  1  1
  3  4  1  0
  2  5  1  0
  1  6  1  1
  1  7  1  0
  4  8  1  0
  9  4  1  6
  5  9  1  0
  9 10  1  0
  5 11  1  0
  7 12  1  0
 11 12  1  0
 10 13  1  1
 10 14  1  0
  7 15  1  6
 12 16  1  1
 13 17  1  0
 17 18  1  0
 18 19  2  0
 17 20  1  0
 18 21  1  0
 14 22  1  0
 20 22  1  0
M  END
$$$$
107
     RDKit          3D

 22 25  0  0  0  0  0  0  0  0999 V2000
   18.3705   88.4740   74.3376 C   0  0  0  0  0  0  0  0  0  0  0  0
   18.9449   88.9259   73.1725 C   0  0  0  0  0  0  0  0  0  0  0  0
   18.8126   89.0738   75.4057 C   0  0  0  0  0  0  0  0  0  0  0  0
   20.1809   89.6728   73.1770 N   0  0  0  0  0  0  0  0  0  0  0  0
   20.5295   90.0112   74.2904 C   0  0  0  0  0  0  0  0  0  0  0  0
   19.9559   89.7854   75.4714 C   0  0  0  0  0  0  0  0  0  0  0  0
   20.6881   90.4276   76.6170 C   0  0  0  0  0  0  0  0  0  0  0  0
   21.7313   90.7276   74.5682 N   0  0  0  0  0  0  0  0  0  0  0  0
   18.4868   88.4492   71.9072 O   0  0  0  0  0  0  0  0  0  0  0  0
   22.7510   91.2639   73.6879 C   0  0  0  0  0  0  0  0  0  0  0  0
   21.7742   90.8907   75.9931 C   0  0  0  0  0  0  0  0  0  0  0  0
   23.7499   90.4861   73.4793 C   0  0  0  0  0  0  0  0  0  0  0  0
   23.6319   89.1393   73.0453 C   0  0  0  0  0  0  0  0  0  0  0  0
   24.7353   88.3502   72.7659 C   0  0  0  0  0  0  0  0  0  0  0  0
   22.7508   92.6517   73.3721 O   0  0  0  0  0  0  0  0  0  0  0  0
   25.9943   88.9707   72.8135 N   0  0  0  0  0  0  0  0  0  0  0  0
   25.8964   90.2913   73.4462 C   0  0  2  0  0  0  0  0  0  0  0  0
   25.0335   91.0338   73.6648 C   0  0  1  0  0  0  0  0  0  0  0  0
   25.4900   92.4002   74.0144 C   0  0  0  0  0  0  0  0  0  0  0  0
   26.8709   92.4483   74.1753 C   0  0  0  0  0  0  0  0  0  0  0  0
   27.5577   91.2489   73.7605 C   0  0  0  0  0  0  0  0  0  0  0  0
   28.6683   90.8600   73.6346 O   0  0  0  0  0  0  0  0  0  0  0  0
  1  2  1  0
  1  3  1  0
  2  4  1  0
  4  5  1  0
  3  6  1  0
  5  6  1  0
  6  7  1  0
  5  8  1  0
  2  9  2  0
  8 10  1  0
  7 11  1  0
  8 11  1  0
 10 12  1  0
 12 13  1  0
 13 14  1  0
 10 15  2  0
 14 16  1  0
 17 16  1  6
 12 18  1  0
 17 18  1  0
 18 19  1  6
 19 20  1  0
 17 21  1  0
 20 21  1  0
 21 22  1  0
M  END
$$$$
108
     RDKit          3D

 22 24  0  0  0  0  0  0  0  0999 V2000
   18.9553   88.9261   72.5594 O   0  0  0  0  0  0  0  0  0  0  0  0
   19.4859   89.3782   73.6161 C   0  0  0  0  0  0  0  0  0  0  0  0
   20.7633   89.7964   73.6172 N   0  0  0  0  0  0  0  0  0  0  0  0
   21.2683   90.3634   74.8710 C   0  0  2  0  0  0  0  0  0  0  0  0
   18.7850   89.5823   74.7441 C   0  0  2  0  0  0  0  0  0  0  0  0
   22.6296   90.8237   74.9058 C   0  0  1  0  0  0  0  0  0  0  0  0
   20.7294   90.2295   76.0338 N   0  0  0  0  0  0  0  0  0  0  0  0
   19.3335   89.8174   76.0141 C   0  0  1  0  0  0  0  0  0  0  0  0
   23.7071   90.2517   74.3155 C   0  0  0  0  0  0  0  0  0  0  0  0
   18.5922   89.8140   77.2189 C   0  0  0  0  0  0  0  0  0  0  0  0
   17.3220   89.1112   74.7096 C   0  0  0  0  0  0  0  0  0  0  0  0
   24.7903   91.1120   73.8617 C   0  0  1  0  0  0  0  0  0  0  0  0
   22.6748   92.1055   75.5809 C   0  0  2  0  0  0  0  0  0  0  0  0
   21.7151   92.7171   76.3657 O   0  0  0  0  0  0  0  0  0  0  0  0
   23.8016   92.9293   75.0798 C   0  0  0  0  0  0  0  0  0  0  0  0
   16.7022   89.3461   76.0098 N   0  0  0  0  0  0  0  0  0  0  0  0
   17.3344   89.5774   77.0589 C   0  0  0  0  0  0  0  0  0  0  0  0
   24.9220   92.4037   74.4054 C   0  0  2  0  0  0  0  0  0  0  0  0
   26.0026   90.5219   73.2236 C   0  0  0  0  0  0  0  0  0  0  0  0
   26.1022   93.2858   74.1085 O   0  0  0  0  0  0  0  0  0  0  0  0
   26.6072   91.0008   72.4847 O   0  0  0  0  0  0  0  0  0  0  0  0
   26.1464   89.2600   73.5412 O   0  0  0  0  0  0  0  0  0  0  0  0
  1  2  2  0
  2  3  1  0
  4  3  1  1
  2  5  1  0
  4  6  1  0
  4  7  1  0
  5  8  1  0
  7  8  1  0
  6  9  1  6
  8 10  1  6
  5 11  1  1
  9 12  1  0
  6 13  1  0
 13 14  1  6
 13 15  1  0
 11 16  1  0
 10 17  1  0
 16 17  1  0
 12 18  1  0
 15 18  1  0
 12 19  1  1
 18 20  1  6
 19 21  2  0
 19 22  1  0
M  END
$$$$
109
     RDKit          3D

 22 23  0  0  0  0  0  0  0  0999 V2000
   21.0692   93.5042   75.4357 C   0  0  0  0  0  0  0  0  0  0  0  0
   20.7887   92.6296   76.4947 C   0  0  0  0  0  0  0  0  0  0  0  0
   21.5626   91.4080   76.6344 C   0  0  0  0  0  0  0  0  0  0  0  0
   22.5698   91.1743   75.6480 C   0  0  0  0  0  0  0  0  0  0  0  0
   21.3121   90.4214   77.7342 C   0  0  0  0  0  0  0  0  0  0  0  0
   22.1618   93.1514   74.6355 C   0  0  0  0  0  0  0  0  0  0  0  0
   22.8640   91.9933   74.7012 C   0  0  0  0  0  0  0  0  0  0  0  0
   19.9796   89.9268   77.7048 C   0  0  0  0  0  0  0  0  0  0  0  0
   23.9865   91.8372   73.6459 C   0  0  1  0  0  0  0  0  0  0  0  0
   24.9995   92.6379   73.5868 N   0  0  0  0  0  0  0  0  0  0  0  0
   26.3008   92.3426   73.6956 C   0  0  0  0  0  0  0  0  0  0  0  0
   24.3541   90.3689   73.5676 C   0  0  2  0  0  0  0  0  0  0  0  0
   25.5885   90.0214   73.1178 C   0  0  0  0  0  0  0  0  0  0  0  0
   23.1797   89.3456   73.2380 C   0  0  0  0  0  0  0  0  0  0  0  0
   21.9615   89.8568   72.8773 O   0  0  0  0  0  0  0  0  0  0  0  0
   27.2806   93.2102   73.7142 O   0  0  0  0  0  0  0  0  0  0  0  0
   26.6595   90.9715   73.2743 N   0  0  0  0  0  0  0  0  0  0  0  0
   20.6661   89.6555   73.4968 C   0  0  0  0  0  0  0  0  0  0  0  0
   25.7549   88.7620   73.1820 O   0  0  0  0  0  0  0  0  0  0  0  0
   19.6291   89.6973   72.6015 N   0  0  0  0  0  0  0  0  0  0  0  0
   20.3581   89.0308   74.4414 O   0  0  0  0  0  0  0  0  0  0  0  0
   18.2870   89.3175   72.8567 C   0  0  0  0  0  0  0  0  0  0  0  0
  1  2  1  0
  2  3  1  0
  3  4  1  0
  3  5  1  0
  1  6  1  0
  4  7  1  0
  6  7  1  0
  5  8  1  0
  9  7  1  1
  9 10  1  0
 10 11  1  0
  9 12  1  0
 12 13  1  0
 12 14  1  6
 14 15  1  0
 11 16  2  0
 11 17  1  0
 13 17  1  0
 15 18  1  0
 13 19  2  0
 18 20  1  0
 18 21  2  0
 20 22  1  0
M  END
$$$$
11
     RDKit          3D

 17 18  0  0  0  0  0  0  0  0999 V2000
   24.9636   88.6225   72.3788 O   0  0  0  0  0  0  0  0  0  0  0  0
   24.8722   89.3820   73.2612 C   0  0  0  0  0  0  0  0  0  0  0  0
   23.7269   90.0654   73.5720 N   0  0  0  0  0  0  0  0  0  0  0  0
   26.0982   89.6840   74.0234 N   0  0  0  0  0  0  0  0  0  0  0  0
   26.4451   90.9966   74.2389 C   0  0  0  0  0  0  0  0  0  0  0  0
   23.9982   91.5431   73.9635 C   0  0  2  0  0  0  0  0  0  0  0  0
   22.5504   89.6608   73.5818 C   0  0  0  0  0  0  0  0  0  0  0  0
   25.3021   91.9875   74.3104 C   0  0  0  0  0  0  0  0  0  0  0  0
   22.7090   91.8483   74.3302 C   0  0  1  0  0  0  0  0  0  0  0  0
   27.6245   91.4444   74.4533 O   0  0  0  0  0  0  0  0  0  0  0  0
   22.4175   93.2915   74.6820 C   0  0  0  0  0  0  0  0  0  0  0  0
   22.8651   94.1587   73.7652 O   0  0  0  0  0  0  0  0  0  0  0  0
   21.7536   93.5962   75.6633 O   0  0  0  0  0  0  0  0  0  0  0  0
   21.7785   90.8181   74.0601 C   0  0  1  0  0  0  0  0  0  0  0  0
   20.5438   90.6705   73.9335 C   0  0  0  0  0  0  0  0  0  0  0  0
   19.4948   91.5304   74.4805 O   0  0  0  0  0  0  0  0  0  0  0  0
   19.8354   89.9096   72.9486 O   0  0  0  0  0  0  0  0  0  0  0  0
  1  2  2  0
  2  3  1  0
  2  4  1  0
  4  5  1  0
  3  6  1  0
  3  7  1  0
  5  8  1  0
  6  8  1  1
  6  9  1  0
  5 10  2  0
  9 11  1  6
 11 12  1  0
 11 13  2  0
  7 14  1  0
  9 14  1  0
 14 15  1  6
 15 16  1  0
 15 17  2  0
M  END
$$$$
110
     RDKit          3D

 22 23  0  0  0  0  0  0  0  0999 V2000
   19.1816   89.6083   72.0600 C   0  0  0  0  0  0  0  0  0  0  0  0
   20.0343   89.8874   73.1185 C   0  0  2  0  0  0  0  0  0  0  0  0
   19.4305   89.7913   70.9391 O   0  0  0  0  0  0  0  0  0  0  0  0
   17.8466   89.3605   72.4228 O   0  0  0  0  0  0  0  0  0  0  0  0
   21.3715   90.0741   72.9816 N   0  0  0  0  0  0  0  0  0  0  0  0
   19.4936   89.8981   74.3937 C   0  0  0  0  0  0  0  0  0  0  0  0
   22.2550   90.3208   73.8331 C   0  0  1  0  0  0  0  0  0  0  0  0
   21.8420   90.3259   75.1656 C   0  0  0  0  0  0  0  0  0  0  0  0
   20.4311   90.0980   75.4512 C   0  0  1  0  0  0  0  0  0  0  0  0
   19.9847   90.2349   76.8307 C   0  0  0  0  0  0  0  0  0  0  0  0
   20.8474   90.7178   77.8402 C   0  0  0  0  0  0  0  0  0  0  0  0
   19.5993   88.8194   77.2000 C   0  0  0  0  0  0  0  0  0  0  0  0
   23.7205   90.5255   73.3749 C   0  0  2  0  0  0  0  0  0  0  0  0
   24.4818   89.4173   73.0745 C   0  0  0  0  0  0  0  0  0  0  0  0
   25.8302   89.6454   72.8676 N   0  0  0  0  0  0  0  0  0  0  0  0
   24.1619   88.2074   72.8991 O   0  0  0  0  0  0  0  0  0  0  0  0
   24.4291   91.6908   73.9296 C   0  0  2  0  0  0  0  0  0  0  0  0
   18.8320   91.0162   76.9262 O   0  0  0  0  0  0  0  0  0  0  0  0
   26.5165   90.7984   73.0927 C   0  0  0  0  0  0  0  0  0  0  0  0
   23.6804   92.8408   74.3172 C   0  0  0  0  0  0  0  0  0  0  0  0
   25.7742   91.8451   73.6091 N   0  0  0  0  0  0  0  0  0  0  0  0
   27.7910   90.9406   72.9865 N   0  0  0  0  0  0  0  0  0  0  0  0
  2  1  1  1
  1  3  2  0
  1  4  1  0
  2  5  1  0
  2  6  1  0
  5  7  1  0
  7  8  1  1
  6  9  1  0
  8  9  1  0
  9 10  1  6
 10 11  1  0
 10 12  1  0
  7 13  1  0
 13 14  1  1
 14 15  1  0
 14 16  2  0
 13 17  1  0
 10 18  1  0
 15 19  1  0
 17 20  1  6
 17 21  1  0
 19 21  1  0
 19 22  2  0
M  END
$$$$
111
     RDKit          3D

 22 23  0  0  0  0  0  0  0  0999 V2000
   19.1273   89.0295   71.9956 O   0  0  0  0  0  0  0  0  0  0  0  0
   18.8170   89.5461   73.0152 C   0  0  0  0  0  0  0  0  0  0  0  0
   19.8833   89.7928   73.8659 C   0  0  1  0  0  0  0  0  0  0  0  0
   20.7124   90.8526   73.7512 N   0  0  0  0  0  0  0  0  0  0  0  0
   21.9972   91.0045   74.2696 C   0  0  1  0  0  0  0  0  0  0  0  0
   19.6615   89.8180   75.3679 C   0  0  2  0  0  0  0  0  0  0  0  0
   17.6983   89.5351   73.6828 O   0  0  0  0  0  0  0  0  0  0  0  0
   20.9010   89.8952   76.2637 C   0  0  0  0  0  0  0  0  0  0  0  0
   18.7730   88.6216   75.9876 C   0  0  0  0  0  0  0  0  0  0  0  0
   22.8236   92.0277   73.7628 C   0  0  0  0  0  0  0  0  0  0  0  0
   24.2169   91.6267   73.5942 C   0  0  2  0  0  0  0  0  0  0  0  0
   24.5203   90.2919   73.7664 C   0  0  0  0  0  0  0  0  0  0  0  0
   21.9735   90.7625   75.6293 C   0  0  0  0  0  0  0  0  0  0  0  0
   25.2106   92.5459   73.6116 N   0  0  0  0  0  0  0  0  0  0  0  0
   25.9140   89.8906   73.5418 C   0  0  1  0  0  0  0  0  0  0  0  0
   26.8739   90.9011   73.4678 N   0  0  0  0  0  0  0  0  0  0  0  0
   26.2472   88.3552   73.4777 N   0  0  0  0  0  0  0  0  0  0  0  0
   25.6606   87.6189   72.6948 C   0  0  0  0  0  0  0  0  0  0  0  0
   26.4905   92.1825   73.4689 C   0  0  0  0  0  0  0  0  0  0  0  0
   24.2469   87.8376   72.4231 O   0  0  0  0  0  0  0  0  0  0  0  0
   27.4960   93.0812   73.4222 O   0  0  0  0  0  0  0  0  0  0  0  0
   26.1668   86.4907   72.3571 N   0  0  0  0  0  0  0  0  0  0  0  0
  1  2  2  0
  3  2  1  6
  3  4  1  0
  4  5  1  0
  3  6  1  0
  2  7  1  0
  6  8  1  0
  6  9  1  1
  5 10  1  1
 11 10  1  1
 11 12  1  0
  5 13  1  0
  8 13  1  0
 11 14  1  0
 12 15  1  0
 15 16  1  0
 15 17  1  1
 17 18  1  0
 14 19  1  0
 16 19  1  0
 18 20  2  0
 19 21  2  0
 18 22  1  0
M  END
$$$$
12
     RDKit          3D

 17 18  0  0  0  0  0  0  0  0999 V2000
   19.1720   89.7260   71.4704 O   0  0  0  0  0  0  0  0  0  0  0  0
   19.0943   89.7112   72.6073 C   0  0  0  0  0  0  0  0  0  0  0  0
   20.2608   89.9192   73.3814 C   0  0  2  0  0  0  0  0  0  0  0  0
   17.9712   89.3770   73.3332 O   0  0  0  0  0  0  0  0  0  0  0  0
   21.5312   90.0129   73.0891 N   0  0  0  0  0  0  0  0  0  0  0  0
   19.9605   89.9656   74.8835 C   0  0  0  0  0  0  0  0  0  0  0  0
   22.5653   90.2178   73.8490 C   0  0  2  0  0  0  0  0  0  0  0  0
   23.9353   90.3698   73.2428 C   0  0  0  0  0  0  0  0  0  0  0  0
   22.5256   89.9280   75.1924 C   0  0  0  0  0  0  0  0  0  0  0  0
   24.5680   91.6621   73.5020 C   0  0  0  0  0  0  0  0  0  0  0  0
   24.6168   89.5501   72.4601 C   0  0  0  0  0  0  0  0  0  0  0  0
   25.9182   89.8601   72.1973 C   0  0  0  0  0  0  0  0  0  0  0  0
   21.1316   89.9065   75.7363 C   0  0  1  0  0  0  0  0  0  0  0  0
   26.5929   90.9954   72.6084 C   0  0  0  0  0  0  0  0  0  0  0  0
   25.7387   91.8408   73.2765 C   0  0  0  0  0  0  0  0  0  0  0  0
   20.9359   89.9087   77.3639 C   0  0  0  0  0  0  0  0  0  0  0  0
   21.8221   90.6718   78.0194 C   0  0  0  0  0  0  0  0  0  0  0  0
  1  2  2  0
  3  2  1  1
  2  4  1  0
  3  5  1  0
  3  6  1  0
  5  7  1  0
  7  8  1  6
  7  9  1  0
  8 10  1  0
  8 11  1  0
 11 12  1  0
  6 13  1  0
  9 13  1  0
 12 14  1  0
 10 15  1  0
 14 15  1  0
 13 16  1  1
 16 17  1  0
M  END
$$$$
13
     RDKit          3D

 18 20  0  0  0  0  0  0  0  0999 V2000
   25.0507   89.7858   72.6233 C   0  0  0  0  0  0  0  0  0  0  0  0
   23.9819   89.8747   73.2938 N   0  0  0  0  0  0  0  0  0  0  0  0
   23.0210   88.9349   73.4104 C   0  0  0  0  0  0  0  0  0  0  0  0
   24.1702   91.0517   74.2268 C   0  0  1  0  0  0  0  0  0  0  0  0
   25.3770   88.5477   72.0443 O   0  0  0  0  0  0  0  0  0  0  0  0
   25.9996   90.8266   72.4714 N   0  0  0  0  0  0  0  0  0  0  0  0
   27.2453   90.6902   72.1245 C   0  0  0  0  0  0  0  0  0  0  0  0
   21.8643   89.7145   73.1318 O   0  0  0  0  0  0  0  0  0  0  0  0
   21.6255   90.8075   73.8697 C   0  0  0  0  0  0  0  0  0  0  0  0
   25.6341   91.5969   73.8538 C   0  0  0  0  0  0  0  0  0  0  0  0
   22.9700   91.9435   73.9192 C   0  0  1  0  0  0  0  0  0  0  0  0
   26.2349   92.6918   74.3238 C   0  0  0  0  0  0  0  0  0  0  0  0
   22.7775   93.2071   74.0491 C   0  0  0  0  0  0  0  0  0  0  0  0
   21.8691   93.6394   75.0968 O   0  0  0  0  0  0  0  0  0  0  0  0
   20.5880   91.3742   74.5458 O   0  0  0  0  0  0  0  0  0  0  0  0
   27.7575   92.7215   74.1034 C   0  0  0  0  0  0  0  0  0  0  0  0
   28.4835   93.2611   74.8095 O   0  0  0  0  0  0  0  0  0  0  0  0
   28.2267   91.7227   73.0959 C   0  0  0  0  0  0  0  0  0  0  0  0
  1  2  1  0
  2  3  1  0
  2  4  1  0
  1  5  2  0
  1  6  1  0
  6  7  1  0
  3  8  1  0
  8  9  1  0
  4 10  1  6
  6 10  1  0
  4 11  1  0
  9 11  1  0
 10 12  2  0
 11 13  1  1
 13 14  1  0
  9 15  2  0
 12 16  1  0
 16 17  2  0
  7 18  1  0
 16 18  1  0
M  END
$$$$
14
     RDKit          3D

 18 20  0  0  0  0  0  0  0  0999 V2000
   25.0507   89.7858   72.6233 C   0  0  0  0  0  0  0  0  0  0  0  0
   23.9819   89.8747   73.2938 N   0  0  0  0  0  0  0  0  0  0  0  0
   23.0210   88.9349   73.4104 C   0  0  0  0  0  0  0  0  0  0  0  0
   24.1702   91.0517   74.2268 C   0  0  1  0  0  0  0  0  0  0  0  0
   25.3770   88.5477   72.0443 O   0  0  0  0  0  0  0  0  0  0  0  0
   25.9996   90.8266   72.4714 N   0  0  0  0  0  0  0  0  0  0  0  0
   27.2453   90.6902   72.1245 C   0  0  0  0  0  0  0  0  0  0  0  0
   21.8643   89.7145   73.1318 O   0  0  0  0  0  0  0  0  0  0  0  0
   21.6255   90.8075   73.8697 C   0  0  0  0  0  0  0  0  0  0  0  0
   25.6341   91.5969   73.8538 C   0  0  0  0  0  0  0  0  0  0  0  0
   22.9700   91.9435   73.9192 C   0  0  1  0  0  0  0  0  0  0  0  0
   22.7529   93.1942   74.1925 C   0  0  0  0  0  0  0  0  0  0  0  0
   22.0175   93.5183   75.3754 C   0  0  0  0  0  0  0  0  0  0  0  0
   26.3442   92.5854   74.3512 C   0  0  0  0  0  0  0  0  0  0  0  0
   20.5221   91.3240   74.3422 O   0  0  0  0  0  0  0  0  0  0  0  0
   28.0902   91.6891   73.1174 C   0  0  0  0  0  0  0  0  0  0  0  0
   27.8067   92.4825   73.9722 C   0  0  0  0  0  0  0  0  0  0  0  0
   21.7183   92.5052   76.2224 O   0  0  0  0  0  0  0  0  0  0  0  0
  1  2  1  0
  2  3  1  0
  2  4  1  0
  1  5  2  0
  1  6  1  0
  6  7  1  0
  3  8  1  0
  8  9  1  0
  4 10  1  6
  6 10  1  0
  4 11  1  0
  9 11  1  0
 11 12  1  1
 12 13  1  0
 10 14  2  0
  9 15  2  0
  7 16  1  0
 14 17  1  0
 16 17  2  0
 13 18  1  0
M  END
$$$$
15
     RDKit          3D

 18 20  0  0  0  0  0  0  0  0999 V2000
   21.0692   93.5042   75.4357 C   0  0  0  0  0  0  0  0  0  0  0  0
   22.1435   92.9808   74.8159 C   0  0  0  0  0  0  0  0  0  0  0  0
   20.6156   92.6483   76.3437 C   0  0  2  0  0  0  0  0  0  0  0  0
   22.5388   91.6364   74.9424 C   0  0  2  0  0  0  0  0  0  0  0  0
   19.5911   92.8611   77.3148 O   0  0  0  0  0  0  0  0  0  0  0  0
   21.3308   91.3465   76.6757 C   0  0  2  0  0  0  0  0  0  0  0  0
   22.1648   90.8519   75.9677 C   0  0  0  0  0  0  0  0  0  0  0  0
   23.8329   91.1287   74.1867 C   0  0  2  0  0  0  0  0  0  0  0  0
   24.9516   91.8664   73.9011 C   0  0  0  0  0  0  0  0  0  0  0  0
   23.7629   89.8514   73.5537 C   0  0  0  0  0  0  0  0  0  0  0  0
   20.3765   90.6476   77.8089 C   0  0  0  0  0  0  0  0  0  0  0  0
   26.0906   91.2922   73.2662 C   0  0  2  0  0  0  0  0  0  0  0  0
   24.9009   89.2704   72.9242 C   0  0  1  0  0  0  0  0  0  0  0  0
   26.0631   90.0080   72.8827 N   0  0  0  0  0  0  0  0  0  0  0  0
   24.9019   87.8666   72.4772 C   0  0  0  0  0  0  0  0  0  0  0  0
   27.3102   91.9680   73.1925 C   0  0  0  0  0  0  0  0  0  0  0  0
   19.2924   91.5568   78.0269 C   0  0  0  0  0  0  0  0  0  0  0  0
   28.3627   91.5099   74.1173 O   0  0  0  0  0  0  0  0  0  0  0  0
  1  2  1  0
  3  1  1  1
  4  2  1  1
  3  5  1  0
  3  6  1  0
  4  7  1  0
  6  7  1  6
  4  8  1  0
  8  9  1  6
  8 10  1  0
  6 11  1  0
  9 12  1  0
 10 13  1  0
 12 14  1  0
 13 14  1  0
 13 15  1  1
 12 16  1  1
  5 17  1  0
 11 17  1  0
 16 18  1  0
M  END
$$$$
16
     RDKit          3D

 18 19  0  0  0  0  0  0  0  0999 V2000
   25.7301   88.9262   72.7462 N   0  0  0  0  0  0  0  0  0  0  0  0
   25.4749   90.1046   73.1966 C   0  0  1  0  0  0  0  0  0  0  0  0
   24.1322   90.4518   73.6049 N   0  0  0  0  0  0  0  0  0  0  0  0
   26.5557   90.9754   73.4975 N   0  0  0  0  0  0  0  0  0  0  0  0
   23.9973   91.7839   74.1166 C   0  0  1  0  0  0  0  0  0  0  0  0
   22.9460   89.7119   73.4258 C   0  0  0  0  0  0  0  0  0  0  0  0
   26.2561   92.1716   74.0144 C   0  0  0  0  0  0  0  0  0  0  0  0
   25.0727   92.6137   74.2895 N   0  0  0  0  0  0  0  0  0  0  0  0
   21.8698   90.6401   73.6068 C   0  0  2  0  0  0  0  0  0  0  0  0
   27.4689   93.0654   74.2592 N   0  0  0  0  0  0  0  0  0  0  0  0
   22.4797   91.8397   74.2100 C   0  0  2  0  0  0  0  0  0  0  0  0
   20.9042   89.9558   74.4935 C   0  0  1  0  0  0  0  0  0  0  0  0
   21.8275   93.0862   74.6253 C   0  0  0  0  0  0  0  0  0  0  0  0
   19.9325   89.2130   73.7989 O   0  0  0  0  0  0  0  0  0  0  0  0
   21.3032   89.3551   75.5139 C   0  0  0  0  0  0  0  0  0  0  0  0
   18.6235   89.0298   74.2703 C   0  0  0  0  0  0  0  0  0  0  0  0
   20.4262   89.3582   76.8697 C   0  0  0  0  0  0  0  0  0  0  0  0
   20.6610   90.3866   77.7714 C   0  0  0  0  0  0  0  0  0  0  0  0
  2  1  1  1
  2  3  1  0
  2  4  1  0
  3  5  1  0
  3  6  1  0
  4  7  1  0
  5  8  1  6
  7  8  1  0
  9  6  1  1
  7 10  1  0
  5 11  1  0
  9 11  1  0
  9 12  1  0
 11 13  1  6
 12 14  1  0
 12 15  1  1
 14 16  1  0
 15 17  1  0
 17 18  1  0
M  END
$$$$
17
     RDKit          3D

 18 20  0  0  0  0  0  0  0  0999 V2000
   21.0692   93.5042   75.4357 C   0  0  0  0  0  0  0  0  0  0  0  0
   22.1435   92.9808   74.8159 C   0  0  0  0  0  0  0  0  0  0  0  0
   20.6156   92.6483   76.3437 C   0  0  2  0  0  0  0  0  0  0  0  0
   22.5388   91.6364   74.9424 C   0  0  2  0  0  0  0  0  0  0  0  0
   19.5911   92.8611   77.3148 O   0  0  0  0  0  0  0  0  0  0  0  0
   21.3308   91.3465   76.6757 C   0  0  2  0  0  0  0  0  0  0  0  0
   22.1648   90.8519   75.9677 C   0  0  0  0  0  0  0  0  0  0  0  0
   23.8329   91.1287   74.1867 C   0  0  2  0  0  0  0  0  0  0  0  0
   24.9516   91.8664   73.9011 C   0  0  0  0  0  0  0  0  0  0  0  0
   23.7629   89.8514   73.5537 C   0  0  0  0  0  0  0  0  0  0  0  0
   20.3765   90.6476   77.8089 C   0  0  0  0  0  0  0  0  0  0  0  0
   26.0906   91.2922   73.2662 C   0  0  2  0  0  0  0  0  0  0  0  0
   24.9009   89.2704   72.9242 C   0  0  1  0  0  0  0  0  0  0  0  0
   26.0631   90.0080   72.8827 N   0  0  0  0  0  0  0  0  0  0  0  0
   24.9019   87.8666   72.4772 C   0  0  0  0  0  0  0  0  0  0  0  0
   27.4598   92.0722   73.1946 C   0  0  0  0  0  0  0  0  0  0  0  0
   19.3229   91.5642   77.9938 C   0  0  0  0  0  0  0  0  0  0  0  0
   28.2144   91.9800   74.4034 C   0  0  0  0  0  0  0  0  0  0  0  0
  1  2  1  0
  3  1  1  1
  4  2  1  1
  3  5  1  0
  3  6  1  0
  4  7  1  0
  6  7  1  6
  4  8  1  0
  8  9  1  6
  8 10  1  0
  6 11  1  0
  9 12  1  0
 10 13  1  0
 12 14  1  0
 13 14  1  0
 13 15  1  1
 12 16  1  1
  5 17  1  0
 11 17  1  0
 16 18  1  0
M  END
$$$$
18
     RDKit          3D

 18 19  0  0  0  0  0  0  0  0999 V2000
   25.3842   88.0564   72.8997 N   0  0  0  0  0  0  0  0  0  0  0  0
   25.1266   89.2695   72.9754 C   0  0  2  0  0  0  0  0  0  0  0  0
   26.1751   90.2621   72.9083 N   0  0  0  0  0  0  0  0  0  0  0  0
   26.2409   91.4274   73.5415 C   0  0  0  0  0  0  0  0  0  0  0  0
   23.9145   89.8014   73.4776 N   0  0  0  0  0  0  0  0  0  0  0  0
   24.9602   91.9819   73.9251 C   0  0  1  0  0  0  0  0  0  0  0  0
   23.8812   91.0657   73.9009 C   0  0  1  0  0  0  0  0  0  0  0  0
   27.3410   92.2717   73.4838 N   0  0  0  0  0  0  0  0  0  0  0  0
   24.9077   93.3325   74.3674 N   0  0  0  0  0  0  0  0  0  0  0  0
   23.5133   93.5096   74.7311 C   0  0  0  0  0  0  0  0  0  0  0  0
   22.6149   92.7042   74.6293 N   0  0  0  0  0  0  0  0  0  0  0  0
   22.7285   91.6098   74.2054 C   0  0  2  0  0  0  0  0  0  0  0  0
   21.4062   90.7083   74.3038 C   0  0  0  0  0  0  0  0  0  0  0  0
   21.3019   89.7751   73.3089 O   0  0  0  0  0  0  0  0  0  0  0  0
   20.4713   91.0836   74.9458 N   0  0  0  0  0  0  0  0  0  0  0  0
   20.5767   91.7189   76.1886 C   0  0  0  0  0  0  0  0  0  0  0  0
   19.9765   90.9482   77.2789 C   0  0  0  0  0  0  0  0  0  0  0  0
   19.6364   89.7792   77.1181 O   0  0  0  0  0  0  0  0  0  0  0  0
  2  1  1  1
  2  3  1  0
  3  4  1  0
  2  5  1  0
  4  6  1  0
  7  5  1  6
  6  7  1  0
  4  8  2  0
  6  9  1  1
  9 10  1  0
 10 11  1  0
  7 12  1  0
 11 12  1  0
 12 13  1  1
 13 14  2  0
 13 15  1  0
 15 16  1  0
 16 17  1  0
 17 18  1  0
M  END
$$$$
19
     RDKit          3D

 18 20  0  0  0  0  0  0  0  0999 V2000
   24.8305   89.2476   72.7236 C   0  0  0  0  0  0  0  0  0  0  0  0
   23.8351   89.5653   73.3855 N   0  0  0  0  0  0  0  0  0  0  0  0
   25.0829   88.1214   72.2262 N   0  0  0  0  0  0  0  0  0  0  0  0
   23.4849   90.6247   73.8482 C   0  0  0  0  0  0  0  0  0  0  0  0
   22.2743   90.9744   74.5695 C   0  0  1  0  0  0  0  0  0  0  0  0
   21.9214   92.1750   74.8770 C   0  0  1  0  0  0  0  0  0  0  0  0
   25.8380   90.3785   72.4575 N   0  0  0  0  0  0  0  0  0  0  0  0
   24.4847   91.7750   73.5747 C   0  0  0  0  0  0  0  0  0  0  0  0
   21.1473   90.1030   74.8259 C   0  0  0  0  0  0  0  0  0  0  0  0
   20.7953   92.4135   75.6829 C   0  0  0  0  0  0  0  0  0  0  0  0
   22.8537   93.4909   74.6586 C   0  0  0  0  0  0  0  0  0  0  0  0
   25.6460   91.4885   73.0146 C   0  0  0  0  0  0  0  0  0  0  0  0
   26.5860   92.4729   72.8559 O   0  0  0  0  0  0  0  0  0  0  0  0
   24.0843   93.0788   73.9917 N   0  0  0  0  0  0  0  0  0  0  0  0
   20.2214   91.0177   75.7152 C   0  0  2  0  0  0  0  0  0  0  0  0
   20.0412   90.2494   76.9538 C   0  0  0  0  0  0  0  0  0  0  0  0
   19.6798   90.8573   77.9856 O   0  0  0  0  0  0  0  0  0  0  0  0
   21.0716   89.3321   77.2780 O   0  0  0  0  0  0  0  0  0  0  0  0
  1  2  1  0
  1  3  1  0
  2  4  1  0
  4  5  1  0
  5  6  1  0
  1  7  1  0
  4  8  1  0
  5  9  1  6
  6 10  1  1
  6 11  1  0
  7 12  1  0
  8 12  1  0
 12 13  2  0
  8 14  1  0
 11 14  1  0
  9 15  1  0
 10 15  1  0
 15 16  1  1
 16 17  1  0
 16 18  1  0
M  END
$$$$
2
     RDKit          3D

 14 15  0  0  0  0  0  0  0  0999 V2000
   25.0507   89.7858   72.6233 C   0  0  0  0  0  0  0  0  0  0  0  0
   23.9819   89.8747   73.2938 N   0  0  0  0  0  0  0  0  0  0  0  0
   23.0210   88.9349   73.4104 C   0  0  0  0  0  0  0  0  0  0  0  0
   24.1702   91.0517   74.2268 C   0  0  1  0  0  0  0  0  0  0  0  0
   25.3770   88.5477   72.0443 O   0  0  0  0  0  0  0  0  0  0  0  0
   25.9996   90.8266   72.4714 N   0  0  0  0  0  0  0  0  0  0  0  0
   27.2453   90.6902   72.1245 C   0  0  0  0  0  0  0  0  0  0  0  0
   21.8643   89.7145   73.1318 O   0  0  0  0  0  0  0  0  0  0  0  0
   21.6255   90.8075   73.8697 C   0  0  0  0  0  0  0  0  0  0  0  0
   25.6341   91.5969   73.8538 C   0  0  0  0  0  0  0  0  0  0  0  0
   22.9700   91.9435   73.9192 C   0  0  1  0  0  0  0  0  0  0  0  0
   26.2349   92.6918   74.3238 O   0  0  0  0  0  0  0  0  0  0  0  0
   22.6995   93.0396   74.7872 C   0  0  0  0  0  0  0  0  0  0  0  0
   20.6515   91.2137   74.6273 O   0  0  0  0  0  0  0  0  0  0  0  0
  1  2  1  0
  2  3  1  0
  2  4  1  0
  1  5  2  0
  1  6  1  0
  6  7  1  0
  3  8  1  0
  8  9  1  0
  4 10  1  6
  6 10  1  0
  4 11  1  0
  9 11  1  0
 10 12  2  0
 11 13  1  1
  9 14  2  0
M  END
$$$$
20
     RDKit          3D

 18 20  0  0  0  0  0  0  0  0999 V2000
   25.0507   89.7858   72.6233 C   0  0  2  0  0  0  0  0  0  0  0  0
   23.9819   89.8747   73.2938 C   0  0  1  0  0  0  0  0  0  0  0  0
   22.9948   88.9238   73.3710 O   0  0  0  0  0  0  0  0  0  0  0  0
   21.7654   89.4674   73.6353 N   0  0  0  0  0  0  0  0  0  0  0  0
   23.6845   90.9745   74.1889 C   0  0  2  0  0  0  0  0  0  0  0  0
   25.4997   88.5216   72.1663 O   0  0  0  0  0  0  0  0  0  0  0  0
   26.2280   90.6329   73.3535 C   0  0  1  0  0  0  0  0  0  0  0  0
   27.5433   90.6019   72.6839 O   0  0  0  0  0  0  0  0  0  0  0  0
   22.1342   90.6975   74.2935 C   0  0  2  0  0  0  0  0  0  0  0  0
   24.6107   91.9036   74.4455 C   0  0  1  0  0  0  0  0  0  0  0  0
   21.3031   91.5350   75.1015 C   0  0  0  0  0  0  0  0  0  0  0  0
   25.8399   91.8093   73.9642 C   0  0  1  0  0  0  0  0  0  0  0  0
   24.1894   93.1456   75.2321 C   0  0  0  0  0  0  0  0  0  0  0  0
   28.4637   91.3355   73.5362 C   0  0  0  0  0  0  0  0  0  0  0  0
   26.8430   92.7297   74.3350 O   0  0  0  0  0  0  0  0  0  0  0  0
   21.3301   92.7692   75.2256 O   0  0  0  0  0  0  0  0  0  0  0  0
   19.9580   91.0374   75.2239 O   0  0  0  0  0  0  0  0  0  0  0  0
   28.1553   92.4505   74.0560 C   0  0  0  0  0  0  0  0  0  0  0  0
  1  2  1  0
  2  3  1  1
  3  4  1  0
  2  5  1  0
  1  6  1  1
  1  7  1  0
  7  8  1  6
  4  9  1  0
  5  9  1  6
  5 10  1  0
  9 11  1  1
  7 12  1  0
 10 12  1  0
 10 13  1  6
  8 14  1  0
 12 15  1  1
 11 16  1  0
 11 17  2  0
 14 18  1  0
 15 18  1  0
M  END
$$$$
21
     RDKit          3D

 18 19  0  0  0  0  0  0  0  0999 V2000
   21.0692   93.5042   75.4357 C   0  0  0  0  0  0  0  0  0  0  0  0
   20.7887   92.6296   76.4947 C   0  0  0  0  0  0  0  0  0  0  0  0
   21.5626   91.4080   76.6344 C   0  0  0  0  0  0  0  0  0  0  0  0
   22.5698   91.1743   75.6480 C   0  0  0  0  0  0  0  0  0  0  0  0
   21.3121   90.4214   77.7342 C   0  0  0  0  0  0  0  0  0  0  0  0
   22.1618   93.1514   74.6355 C   0  0  0  0  0  0  0  0  0  0  0  0
   22.8640   91.9933   74.7012 C   0  0  0  0  0  0  0  0  0  0  0  0
   19.9796   89.9268   77.7048 C   0  0  0  0  0  0  0  0  0  0  0  0
   23.9865   91.8372   73.6459 C   0  0  1  0  0  0  0  0  0  0  0  0
   24.9995   92.6379   73.5868 N   0  0  0  0  0  0  0  0  0  0  0  0
   26.3008   92.3426   73.6956 C   0  0  1  0  0  0  0  0  0  0  0  0
   24.3541   90.3689   73.5676 C   0  0  1  0  0  0  0  0  0  0  0  0
   23.1985   89.3990   73.3453 O   0  0  0  0  0  0  0  0  0  0  0  0
   25.6619   90.0303   73.2538 C   0  0  2  0  0  0  0  0  0  0  0  0
   25.9206   88.6823   72.9681 N   0  0  0  0  0  0  0  0  0  0  0  0
   26.6785   90.9156   73.5390 N   0  0  0  0  0  0  0  0  0  0  0  0
   26.0225   87.7362   73.9831 C   0  0  0  0  0  0  0  0  0  0  0  0
   27.3336   93.3085   73.8209 N   0  0  0  0  0  0  0  0  0  0  0  0
  1  2  1  0
  2  3  1  0
  3  4  1  0
  3  5  1  0
  1  6  1  0
  4  7  1  0
  6  7  1  0
  5  8  1  0
  9  7  1  1
  9 10  1  0
 10 11  1  0
  9 12  1  0
 12 13  1  6
 12 14  1  0
 14 15  1  1
 11 16  1  0
 14 16  1  0
 15 17  1  0
 11 18  1  6
M  END
$$$$
22
     RDKit          3D

 19 21  0  0  0  0  0  0  0  0999 V2000
   19.1816   89.6083   72.0600 C   0  0  0  0  0  0  0  0  0  0  0  0
   20.0343   89.8874   73.1185 C   0  0  2  0  0  0  0  0  0  0  0  0
   19.4305   89.7913   70.9391 O   0  0  0  0  0  0  0  0  0  0  0  0
   17.8466   89.3605   72.4228 O   0  0  0  0  0  0  0  0  0  0  0  0
   21.3715   90.0741   72.9816 N   0  0  0  0  0  0  0  0  0  0  0  0
   19.4936   89.8981   74.3937 C   0  0  0  0  0  0  0  0  0  0  0  0
   22.2550   90.3208   73.8331 C   0  0  1  0  0  0  0  0  0  0  0  0
   21.8420   90.3259   75.1656 C   0  0  1  0  0  0  0  0  0  0  0  0
   20.4311   90.0980   75.4512 C   0  0  1  0  0  0  0  0  0  0  0  0
   19.9847   90.2349   76.8307 C   0  0  0  0  0  0  0  0  0  0  0  0
   20.8474   90.7178   77.8402 C   0  0  0  0  0  0  0  0  0  0  0  0
   22.8655   90.5105   76.2808 C   0  0  0  0  0  0  0  0  0  0  0  0
   23.7137   90.4840   73.3104 C   0  0  0  0  0  0  0  0  0  0  0  0
   24.2581   91.7220   73.3275 C   0  0  0  0  0  0  0  0  0  0  0  0
   25.6675   91.7522   73.0656 C   0  0  0  0  0  0  0  0  0  0  0  0
   24.3867   89.3356   72.8005 C   0  0  0  0  0  0  0  0  0  0  0  0
   22.3103   90.7856   77.5505 C   0  0  0  0  0  0  0  0  0  0  0  0
   25.7452   89.4435   72.6631 C   0  0  0  0  0  0  0  0  0  0  0  0
   26.3704   90.6745   72.7449 C   0  0  0  0  0  0  0  0  0  0  0  0
  2  1  1  1
  1  3  2  0
  1  4  1  0
  2  5  1  0
  2  6  1  0
  5  7  1  0
  7  8  1  0
  9  6  1  6
  8  9  1  0
  9 10  1  0
 10 11  1  0
  8 12  1  1
  7 13  1  1
 13 14  1  0
 14 15  1  0
 13 16  1  0
 11 17  1  0
 12 17  1  0
 16 18  1  0
 15 19  1  0
 18 19  1  0
M  END
$$$$
23
     RDKit          3D

 19 21  0  0  0  0  0  0  0  0999 V2000
   21.0692   93.5042   75.4357 C   0  0  0  0  0  0  0  0  0  0  0  0
   22.1435   92.9808   74.8159 C   0  0  0  0  0  0  0  0  0  0  0  0
   20.6156   92.6483   76.3437 C   0  0  2  0  0  0  0  0  0  0  0  0
   22.5388   91.6364   74.9424 C   0  0  2  0  0  0  0  0  0  0  0  0
   19.5911   92.8611   77.3148 O   0  0  0  0  0  0  0  0  0  0  0  0
   21.3308   91.3465   76.6757 C   0  0  2  0  0  0  0  0  0  0  0  0
   22.1648   90.8519   75.9677 C   0  0  0  0  0  0  0  0  0  0  0  0
   23.8329   91.1287   74.1867 C   0  0  2  0  0  0  0  0  0  0  0  0
   24.9516   91.8664   73.9011 C   0  0  0  0  0  0  0  0  0  0  0  0
   23.7629   89.8514   73.5537 C   0  0  0  0  0  0  0  0  0  0  0  0
   20.3765   90.6476   77.8089 C   0  0  0  0  0  0  0  0  0  0  0  0
   26.0906   91.2922   73.2662 C   0  0  2  0  0  0  0  0  0  0  0  0
   19.2555   91.5661   78.0184 C   0  0  0  0  0  0  0  0  0  0  0  0
   25.9811   89.9956   72.8072 C   0  0  0  0  0  0  0  0  0  0  0  0
   27.3532   92.0494   73.2359 C   0  0  0  0  0  0  0  0  0  0  0  0
   28.4628   91.3230   73.1898 O   0  0  0  0  0  0  0  0  0  0  0  0
   24.8057   89.2988   72.9677 C   0  0  0  0  0  0  0  0  0  0  0  0
   27.3690   93.2396   73.2377 O   0  0  0  0  0  0  0  0  0  0  0  0
   24.8261   87.7631   72.4444 Cl  0  0  0  0  0  0  0  0  0  0  0  0
  1  2  1  0
  3  1  1  1
  4  2  1  1
  3  5  1  0
  3  6  1  0
  4  7  1  0
  6  7  1  6
  4  8  1  0
  8  9  1  6
  8 10  1  0
  6 11  1  0
  9 12  1  0
  5 13  1  0
 11 13  1  0
 12 14  1  0
 12 15  1  1
 15 16  1  0
 10 17  1  0
 14 17  1  0
 15 18  2  0
 17 19  1  0
M  END
$$$$
24
     RDKit          3D

 19 21  0  0  0  0  0  0  0  0999 V2000
   25.0507   89.7858   72.6233 C   0  0  0  0  0  0  0  0  0  0  0  0
   23.9819   89.8747   73.2938 N   0  0  0  0  0  0  0  0  0  0  0  0
   23.0210   88.9349   73.4104 C   0  0  0  0  0  0  0  0  0  0  0  0
   24.1702   91.0517   74.2268 C   0  0  1  0  0  0  0  0  0  0  0  0
   25.3770   88.5477   72.0443 O   0  0  0  0  0  0  0  0  0  0  0  0
   25.9996   90.8266   72.4714 N   0  0  0  0  0  0  0  0  0  0  0  0
   27.2453   90.6902   72.1245 C   0  0  0  0  0  0  0  0  0  0  0  0
   21.8643   89.7145   73.1318 O   0  0  0  0  0  0  0  0  0  0  0  0
   21.6255   90.8075   73.8697 C   0  0  2  0  0  0  0  0  0  0  0  0
   25.6341   91.5969   73.8538 C   0  0  0  0  0  0  0  0  0  0  0  0
   22.9700   91.9435   73.9192 C   0  0  1  0  0  0  0  0  0  0  0  0
   21.2782   90.5914   75.3289 C   0  0  1  0  0  0  0  0  0  0  0  0
   22.7770   93.1969   74.0395 C   0  0  0  0  0  0  0  0  0  0  0  0
   20.6688   91.5056   76.0612 O   0  0  0  0  0  0  0  0  0  0  0  0
   20.3364   89.3849   75.4311 C   0  0  0  0  0  0  0  0  0  0  0  0
   20.5249   91.3973   77.5117 C   0  0  0  0  0  0  0  0  0  0  0  0
   19.6774   90.2057   77.7394 C   0  0  0  0  0  0  0  0  0  0  0  0
   20.1414   89.0652   76.9378 C   0  0  0  0  0  0  0  0  0  0  0  0
   26.2904   92.5856   74.3553 O   0  0  0  0  0  0  0  0  0  0  0  0
  1  2  1  0
  2  3  1  0
  2  4  1  0
  1  5  2  0
  1  6  1  0
  6  7  1  0
  3  8  1  0
  9  8  1  1
  4 10  1  6
  6 10  1  0
  4 11  1  0
  9 11  1  0
  9 12  1  0
 11 13  1  1
 12 14  1  0
 12 15  1  6
 14 16  1  0
 16 17  1  0
 15 18  1  0
 17 18  1  0
 10 19  2  0
M  END
$$$$
25
     RDKit          3D

 19 21  0  0  0  0  0  0  0  0999 V2000
   21.0692   93.5042   75.4357 C   0  0  0  0  0  0  0  0  0  0  0  0
   22.1435   92.9808   74.8159 C   0  0  0  0  0  0  0  0  0  0  0  0
   20.6156   92.6483   76.3437 C   0  0  2  0  0  0  0  0  0  0  0  0
   22.5388   91.6364   74.9424 C   0  0  2  0  0  0  0  0  0  0  0  0
   19.5911   92.8611   77.3148 O   0  0  0  0  0  0  0  0  0  0  0  0
   21.3308   91.3465   76.6757 C   0  0  2  0  0  0  0  0  0  0  0  0
   22.1648   90.8519   75.9677 C   0  0  0  0  0  0  0  0  0  0  0  0
   23.8329   91.1287   74.1867 C   0  0  2  0  0  0  0  0  0  0  0  0
   24.9516   91.8664   73.9011 C   0  0  0  0  0  0  0  0  0  0  0  0
   23.7629   89.8514   73.5537 C   0  0  0  0  0  0  0  0  0  0  0  0
   20.3765   90.6476   77.8089 C   0  0  0  0  0  0  0  0  0  0  0  0
   26.0906   91.2922   73.2662 C   0  0  2  0  0  0  0  0  0  0  0  0
   19.2555   91.5661   78.0184 C   0  0  0  0  0  0  0  0  0  0  0  0
   25.9811   89.9956   72.8072 C   0  0  0  0  0  0  0  0  0  0  0  0
   27.3532   92.0494   73.2359 C   0  0  0  0  0  0  0  0  0  0  0  0
   28.4628   91.3230   73.1898 O   0  0  0  0  0  0  0  0  0  0  0  0
   24.8057   89.2988   72.9677 C   0  0  0  0  0  0  0  0  0  0  0  0
   27.3690   93.2396   73.2377 O   0  0  0  0  0  0  0  0  0  0  0  0
   24.7483   88.0017   72.5119 O   0  0  0  0  0  0  0  0  0  0  0  0
  1  2  1  0
  3  1  1  1
  4  2  1  1
  3  5  1  0
  3  6  1  0
  4  7  1  0
  6  7  1  6
  4  8  1  0
  8  9  1  6
  8 10  1  0
  6 11  1  0
  9 12  1  0
  5 13  1  0
 11 13  1  0
 12 14  1  0
 12 15  1  1
 15 16  1  0
 10 17  1  0
 14 17  1  0
 15 18  2  0
 17 19  1  0
M  END
$$$$
26
     RDKit          3D

 19 21  0  0  0  0  0  0  0  0999 V2000
   21.6626   89.9695   77.6858 C   0  0  0  0  0  0  0  0  0  0  0  0
   22.0321   89.9126   76.5502 C   0  0  0  0  0  0  0  0  0  0  0  0
   21.5500   90.6211   75.6566 C   0  0  0  0  0  0  0  0  0  0  0  0
   22.2048   90.6746   74.2654 N   0  0  0  0  0  0  0  0  0  0  0  0
   23.0675   91.7533   73.9112 C   0  0  1  0  0  0  0  0  0  0  0  0
   22.4373   89.3972   73.5601 C   0  0  0  0  0  0  0  0  0  0  0  0
   20.5767   90.8190   77.9559 C   0  0  0  0  0  0  0  0  0  0  0  0
   22.9948   92.9668   74.5026 C   0  0  0  0  0  0  0  0  0  0  0  0
   20.4900   91.3595   75.8841 C   0  0  0  0  0  0  0  0  0  0  0  0
   20.0063   91.4947   76.9609 C   0  0  0  0  0  0  0  0  0  0  0  0
   24.2206   93.5844   74.7528 C   0  0  0  0  0  0  0  0  0  0  0  0
   25.2385   92.6689   74.3444 C   0  0  1  0  0  0  0  0  0  0  0  0
   23.5173   89.1989   73.2927 N   0  0  0  0  0  0  0  0  0  0  0  0
   24.5942   90.1692   73.1135 C   0  0  2  0  0  0  0  0  0  0  0  0
   25.7897   89.8096   72.5682 O   0  0  0  0  0  0  0  0  0  0  0  0
   24.4301   91.5126   73.6743 C   0  0  1  0  0  0  0  0  0  0  0  0
   26.4562   92.7155   73.7520 O   0  0  0  0  0  0  0  0  0  0  0  0
   27.4009   91.6994   74.1714 C   0  0  0  0  0  0  0  0  0  0  0  0
   26.1136   88.4757   73.0172 C   0  0  0  0  0  0  0  0  0  0  0  0
  1  2  1  0
  2  3  1  0
  3  4  1  0
  4  5  1  0
  4  6  1  0
  1  7  1  0
  5  8  1  1
  3  9  1  0
  7 10  1  0
  9 10  1  0
  8 11  1  0
 11 12  1  0
  6 13  1  0
 13 14  1  0
 14 15  1  1
  5 16  1  0
 16 12  1  1
 14 16  1  0
 12 17  1  6
 17 18  1  0
 15 19  1  0
M  END
$$$$
27
     RDKit          3D

 19 20  0  0  0  0  0  0  0  0999 V2000
   24.9636   88.6225   72.3788 O   0  0  0  0  0  0  0  0  0  0  0  0
   24.8722   89.3820   73.2612 C   0  0  0  0  0  0  0  0  0  0  0  0
   23.7269   90.0654   73.5720 N   0  0  0  0  0  0  0  0  0  0  0  0
   26.0982   89.6840   74.0234 N   0  0  0  0  0  0  0  0  0  0  0  0
   26.4451   90.9966   74.2389 C   0  0  0  0  0  0  0  0  0  0  0  0
   23.9982   91.5431   73.9635 C   0  0  1  0  0  0  0  0  0  0  0  0
   22.8700   92.3425   74.2619 C   0  0  2  0  0  0  0  0  0  0  0  0
   22.3523   89.7159   73.4086 C   0  0  0  0  0  0  0  0  0  0  0  0
   23.1450   93.6950   74.5986 O   0  0  0  0  0  0  0  0  0  0  0  0
   21.8170   91.5869   74.8837 C   0  0  0  0  0  0  0  0  0  0  0  0
   25.3276   91.9361   74.0727 C   0  0  0  0  0  0  0  0  0  0  0  0
   27.6715   91.3501   74.5832 C   0  0  0  0  0  0  0  0  0  0  0  0
   28.0295   92.6986   74.4187 O   0  0  0  0  0  0  0  0  0  0  0  0
   28.5572   90.5498   74.9689 O   0  0  0  0  0  0  0  0  0  0  0  0
   21.3858   90.3197   74.0535 C   0  0  2  0  0  0  0  0  0  0  0  0
   20.0256   89.9029   74.2345 C   0  0  0  0  0  0  0  0  0  0  0  0
   19.4824   89.2348   73.0736 O   0  0  0  0  0  0  0  0  0  0  0  0
   18.2331   89.4987   72.5094 C   0  0  0  0  0  0  0  0  0  0  0  0
   19.2159   89.9805   75.0496 O   0  0  0  0  0  0  0  0  0  0  0  0
  1  2  2  0
  2  3  1  0
  2  4  1  0
  4  5  1  0
  3  6  1  0
  6  7  1  0
  3  8  1  0
  7  9  1  1
  7 10  1  0
  5 11  1  0
  6 11  1  1
  5 12  1  0
 12 13  2  0
 12 14  1  0
  8 15  1  0
 10 15  1  0
 15 16  1  1
 16 17  1  0
 17 18  1  0
 16 19  2  0
M  END
$$$$
28
     RDKit          3D

 19 22  0  0  0  0  0  0  0  0999 V2000
   21.6626   89.9695   77.6858 C   0  0  0  0  0  0  0  0  0  0  0  0
   22.0321   89.9126   76.5502 C   0  0  0  0  0  0  0  0  0  0  0  0
   21.5500   90.6211   75.6566 C   0  0  0  0  0  0  0  0  0  0  0  0
   22.2048   90.6746   74.2654 N   0  0  0  0  0  0  0  0  0  0  0  0
   23.0675   91.7533   73.9112 C   0  0  1  0  0  0  0  0  0  0  0  0
   22.4373   89.3972   73.5601 C   0  0  0  0  0  0  0  0  0  0  0  0
   20.5767   90.8190   77.9559 C   0  0  0  0  0  0  0  0  0  0  0  0
   22.9948   92.9668   74.5026 C   0  0  0  0  0  0  0  0  0  0  0  0
   20.4900   91.3595   75.8841 C   0  0  0  0  0  0  0  0  0  0  0  0
   20.0063   91.4947   76.9609 C   0  0  0  0  0  0  0  0  0  0  0  0
   24.2206   93.5844   74.7528 C   0  0  0  0  0  0  0  0  0  0  0  0
   25.2385   92.6689   74.3444 C   0  0  1  0  0  0  0  0  0  0  0  0
   23.5173   89.1989   73.2927 N   0  0  0  0  0  0  0  0  0  0  0  0
   24.5942   90.1692   73.1135 C   0  0  1  0  0  0  0  0  0  0  0  0
   24.3553   91.4726   73.8624 C   0  0  2  0  0  0  0  0  0  0  0  0
   26.4575   92.4273   73.8081 C   0  0  1  0  0  0  0  0  0  0  0  0
   25.9677   90.0085   72.7870 C   0  0  0  0  0  0  0  0  0  0  0  0
   27.4577   93.3029   74.2006 O   0  0  0  0  0  0  0  0  0  0  0  0
   26.9972   91.0224   73.4649 C   0  0  0  0  0  0  0  0  0  0  0  0
  1  2  1  0
  2  3  1  0
  3  4  1  0
  4  5  1  0
  4  6  1  0
  1  7  1  0
  5  8  1  1
  3  9  1  0
  7 10  1  0
  9 10  1  0
  8 11  1  0
 12 11  1  6
  6 13  1  0
 13 14  1  0
 15  5  1  6
 12 15  1  0
 14 15  1  0
 12 16  1  0
 14 17  1  1
 16 18  1  1
 16 19  1  0
 17 19  1  0
M  END
$$$$
29
     RDKit          3D

 19 19  0  0  0  0  0  0  0  0999 V2000
   21.2272   90.1770   77.8729 C   0  0  0  0  0  0  0  0  0  0  0  0
   21.9243   89.9577   76.8172 C   0  0  0  0  0  0  0  0  0  0  0  0
   20.1857   90.8062   77.8890 C   0  0  0  0  0  0  0  0  0  0  0  0
   19.6732   91.3568   76.6662 C   0  0  1  0  0  0  0  0  0  0  0  0
   18.4570   92.2360   76.6398 O   0  0  0  0  0  0  0  0  0  0  0  0
   17.2100   91.7109   76.3149 C   0  0  0  0  0  0  0  0  0  0  0  0
   20.4660   91.1615   75.5506 C   0  0  0  0  0  0  0  0  0  0  0  0
   21.4946   90.5346   75.6094 C   0  0  0  0  0  0  0  0  0  0  0  0
   22.5647   90.1807   74.3180 C   0  0  0  0  0  0  0  0  0  0  0  0
   23.9346   90.1040   74.5782 O   0  0  0  0  0  0  0  0  0  0  0  0
   24.7891   89.7638   73.5419 C   0  0  1  0  0  0  0  0  0  0  0  0
   25.6147   90.9244   73.2618 C   0  0  2  0  0  0  0  0  0  0  0  0
   25.5027   88.5059   73.7185 C   0  0  0  0  0  0  0  0  0  0  0  0
   26.9574   90.7217   73.2327 O   0  0  0  0  0  0  0  0  0  0  0  0
   22.2054   91.3438   73.5594 O   0  0  0  0  0  0  0  0  0  0  0  0
   25.3501   91.9917   74.2665 C   0  0  0  0  0  0  0  0  0  0  0  0
   21.9097   88.9743   73.7583 O   0  0  0  0  0  0  0  0  0  0  0  0
   24.3266   92.9891   73.7885 O   0  0  0  0  0  0  0  0  0  0  0  0
   24.8917   87.3614   73.4495 O   0  0  0  0  0  0  0  0  0  0  0  0
  1  2  1  0
  1  3  1  0
  3  4  1  0
  4  5  1  1
  5  6  1  0
  4  7  1  0
  2  8  1  0
  7  8  1  0
  8  9  1  0
  9 10  1  0
 10 11  1  0
 11 12  1  0
 11 13  1  1
 12 14  1  1
  9 15  1  0
 12 16  1  0
  9 17  1  0
 16 18  1  0
 13 19  1  0
M  END
$$$$
3
     RDKit          3D

 15 16  0  0  0  0  0  0  0  0999 V2000
   25.3842   88.0564   72.8997 N   0  0  0  0  0  0  0  0  0  0  0  0
   25.1266   89.2695   72.9754 C   0  0  2  0  0  0  0  0  0  0  0  0
   26.1751   90.2621   72.9083 N   0  0  0  0  0  0  0  0  0  0  0  0
   26.2409   91.4274   73.5415 C   0  0  0  0  0  0  0  0  0  0  0  0
   23.9145   89.8014   73.4776 N   0  0  0  0  0  0  0  0  0  0  0  0
   24.9602   91.9819   73.9251 C   0  0  1  0  0  0  0  0  0  0  0  0
   23.8812   91.0657   73.9009 C   0  0  1  0  0  0  0  0  0  0  0  0
   27.3410   92.2717   73.4838 N   0  0  0  0  0  0  0  0  0  0  0  0
   24.9077   93.3325   74.3674 N   0  0  0  0  0  0  0  0  0  0  0  0
   23.5133   93.5096   74.7311 C   0  0  0  0  0  0  0  0  0  0  0  0
   22.6149   92.7042   74.6293 N   0  0  0  0  0  0  0  0  0  0  0  0
   22.7285   91.6098   74.2054 C   0  0  2  0  0  0  0  0  0  0  0  0
   21.4062   90.7083   74.3038 C   0  0  0  0  0  0  0  0  0  0  0  0
   21.3019   89.7751   73.3089 O   0  0  0  0  0  0  0  0  0  0  0  0
   20.0019   89.3659   73.0991 C   0  0  0  0  0  0  0  0  0  0  0  0
  2  1  1  1
  2  3  1  0
  3  4  1  0
  2  5  1  0
  4  6  1  0
  7  5  1  6
  6  7  1  0
  4  8  2  0
  6  9  1  1
  9 10  1  0
 10 11  1  0
  7 12  1  0
 11 12  1  0
 12 13  1  1
 13 14  1  0
 14 15  1  0
M  END
$$$$
30
     RDKit          3D

 19 21  0  0  0  0  0  0  0  0999 V2000
   21.0692   93.5042   75.4357 C   0  0  0  0  0  0  0  0  0  0  0  0
   22.1435   92.9808   74.8159 C   0  0  0  0  0  0  0  0  0  0  0  0
   20.6156   92.6483   76.3437 C   0  0  2  0  0  0  0  0  0  0  0  0
   22.5388   91.6364   74.9424 C   0  0  2  0  0  0  0  0  0  0  0  0
   19.5911   92.8611   77.3148 O   0  0  0  0  0  0  0  0  0  0  0  0
   21.3308   91.3465   76.6757 C   0  0  2  0  0  0  0  0  0  0  0  0
   22.1648   90.8519   75.9677 C   0  0  0  0  0  0  0  0  0  0  0  0
   23.8329   91.1287   74.1867 C   0  0  2  0  0  0  0  0  0  0  0  0
   24.9516   91.8664   73.9011 C   0  0  0  0  0  0  0  0  0  0  0  0
   23.7629   89.8514   73.5537 C   0  0  0  0  0  0  0  0  0  0  0  0
   20.3765   90.6476   77.8089 C   0  0  0  0  0  0  0  0  0  0  0  0
   26.0906   91.2922   73.2662 C   0  0  0  0  0  0  0  0  0  0  0  0
   19.2555   91.5661   78.0184 C   0  0  0  0  0  0  0  0  0  0  0  0
   25.9811   89.9956   72.8072 C   0  0  1  0  0  0  0  0  0  0  0  0
   27.1523   89.3770   72.4023 O   0  0  0  0  0  0  0  0  0  0  0  0
   24.8130   89.2933   72.9400 C   0  0  0  0  0  0  0  0  0  0  0  0
   27.2886   92.0388   73.1729 C   0  0  0  0  0  0  0  0  0  0  0  0
   28.4036   91.5639   73.8440 N   0  0  0  0  0  0  0  0  0  0  0  0
   27.2803   93.0756   72.5565 O   0  0  0  0  0  0  0  0  0  0  0  0
  1  2  1  0
  3  1  1  1
  4  2  1  1
  3  5  1  0
  3  6  1  0
  4  7  1  0
  6  7  1  6
  4  8  1  0
  8  9  1  6
  8 10  1  0
  6 11  1  0
  9 12  1  0
  5 13  1  0
 11 13  1  0
 12 14  1  0
 14 15  1  1
 10 16  1  0
 14 16  1  0
 12 17  1  0
 17 18  1  0
 17 19  2  0
M  END
$$$$
31
     RDKit          3D

 19 21  0  0  0  0  0  0  0  0999 V2000
   21.0692   93.5042   75.4357 C   0  0  0  0  0  0  0  0  0  0  0  0
   20.7887   92.6296   76.4947 C   0  0  0  0  0  0  0  0  0  0  0  0
   21.5626   91.4080   76.6344 C   0  0  0  0  0  0  0  0  0  0  0  0
   22.5698   91.1743   75.6480 C   0  0  0  0  0  0  0  0  0  0  0  0
   21.3121   90.4214   77.7342 C   0  0  0  0  0  0  0  0  0  0  0  0
   22.1618   93.1514   74.6355 C   0  0  0  0  0  0  0  0  0  0  0  0
   22.8640   91.9933   74.7012 C   0  0  0  0  0  0  0  0  0  0  0  0
   19.9796   89.9268   77.7048 C   0  0  0  0  0  0  0  0  0  0  0  0
   23.9865   91.8372   73.6459 C   0  0  1  0  0  0  0  0  0  0  0  0
   24.9995   92.6379   73.5868 N   0  0  0  0  0  0  0  0  0  0  0  0
   26.3008   92.3426   73.6956 C   0  0  0  0  0  0  0  0  0  0  0  0
   24.3541   90.3689   73.5676 C   0  0  2  0  0  0  0  0  0  0  0  0
   25.5885   90.0214   73.1178 C   0  0  1  0  0  0  0  0  0  0  0  0
   23.1797   89.3456   73.2380 C   0  0  1  0  0  0  0  0  0  0  0  0
   21.9615   89.8568   72.8773 O   0  0  0  0  0  0  0  0  0  0  0  0
   27.2806   93.2102   73.7142 O   0  0  0  0  0  0  0  0  0  0  0  0
   26.6595   90.9715   73.2743 N   0  0  0  0  0  0  0  0  0  0  0  0
   25.7235   88.7581   73.1502 N   0  0  0  0  0  0  0  0  0  0  0  0
   24.1248   88.2901   73.0088 C   0  0  0  0  0  0  0  0  0  0  0  0
  1  2  1  0
  2  3  1  0
  3  4  1  0
  3  5  1  0
  1  6  1  0
  4  7  1  0
  6  7  1  0
  5  8  1  0
  9  7  1  1
  9 10  1  0
 10 11  1  0
 12  9  1  6
 12 13  1  0
 12 14  1  0
 14 15  1  6
 11 16  2  0
 11 17  1  0
 13 17  1  1
 13 18  1  0
 14 19  1  0
 18 19  1  0
M  END
$$$$
32
     RDKit          3D

 19 20  0  0  0  0  0  0  0  0999 V2000
   25.0507   89.7858   72.6233 C   0  0  0  0  0  0  0  0  0  0  0  0
   23.9819   89.8747   73.2938 N   0  0  0  0  0  0  0  0  0  0  0  0
   23.0210   88.9349   73.4104 C   0  0  0  0  0  0  0  0  0  0  0  0
   24.1702   91.0517   74.2268 C   0  0  1  0  0  0  0  0  0  0  0  0
   25.3770   88.5477   72.0443 O   0  0  0  0  0  0  0  0  0  0  0  0
   25.9996   90.8266   72.4714 N   0  0  0  0  0  0  0  0  0  0  0  0
   27.2453   90.6902   72.1245 C   0  0  0  0  0  0  0  0  0  0  0  0
   21.8643   89.7145   73.1318 O   0  0  0  0  0  0  0  0  0  0  0  0
   21.6255   90.8075   73.8697 C   0  0  2  0  0  0  0  0  0  0  0  0
   25.6341   91.5969   73.8538 C   0  0  0  0  0  0  0  0  0  0  0  0
   22.9700   91.9435   73.9192 C   0  0  1  0  0  0  0  0  0  0  0  0
   21.2782   90.5914   75.3289 C   0  0  1  0  0  0  0  0  0  0  0  0
   22.7770   93.1969   74.0395 C   0  0  0  0  0  0  0  0  0  0  0  0
   20.6688   91.5056   76.0612 O   0  0  0  0  0  0  0  0  0  0  0  0
   20.3364   89.3849   75.4311 C   0  0  0  0  0  0  0  0  0  0  0  0
   20.5249   91.3973   77.5117 C   0  0  0  0  0  0  0  0  0  0  0  0
   19.0413   89.6120   75.1252 O   0  0  0  0  0  0  0  0  0  0  0  0
   21.5794   90.6755   77.9952 C   0  0  0  0  0  0  0  0  0  0  0  0
   26.2733   92.5613   74.3680 O   0  0  0  0  0  0  0  0  0  0  0  0
  1  2  1  0
  2  3  1  0
  2  4  1  0
  1  5  2  0
  1  6  1  0
  6  7  1  0
  3  8  1  0
  9  8  1  1
  4 10  1  6
  6 10  1  0
  4 11  1  0
  9 11  1  0
  9 12  1  0
 11 13  1  1
 12 14  1  0
 12 15  1  6
 14 16  1  0
 15 17  1  0
 16 18  1  0
 10 19  2  0
M  END
$$$$
33
     RDKit          3D

 19 21  0  0  0  0  0  0  0  0999 V2000
   24.9636   88.6225   72.3788 O   0  0  0  0  0  0  0  0  0  0  0  0
   24.8722   89.3820   73.2612 C   0  0  0  0  0  0  0  0  0  0  0  0
   23.7269   90.0654   73.5720 N   0  0  0  0  0  0  0  0  0  0  0  0
   26.0982   89.6840   74.0234 N   0  0  0  0  0  0  0  0  0  0  0  0
   26.4451   90.9966   74.2389 C   0  0  0  0  0  0  0  0  0  0  0  0
   23.9982   91.5431   73.9635 C   0  0  1  0  0  0  0  0  0  0  0  0
   22.8700   92.3425   74.2619 C   0  0  2  0  0  0  0  0  0  0  0  0
   22.3523   89.7159   73.4086 C   0  0  0  0  0  0  0  0  0  0  0  0
   23.1450   93.6950   74.5986 O   0  0  0  0  0  0  0  0  0  0  0  0
   21.8170   91.5869   74.8837 C   0  0  1  0  0  0  0  0  0  0  0  0
   21.5622   90.5978   73.8618 C   0  0  2  0  0  0  0  0  0  0  0  0
   20.1969   89.8732   74.4624 C   0  0  2  0  0  0  0  0  0  0  0  0
   25.3601   91.9135   74.1231 C   0  0  0  0  0  0  0  0  0  0  0  0
   22.0468   90.8090   76.1634 C   0  0  0  0  0  0  0  0  0  0  0  0
   20.7889   90.0274   76.4528 C   0  0  0  0  0  0  0  0  0  0  0  0
   27.6803   91.2492   74.4810 O   0  0  0  0  0  0  0  0  0  0  0  0
   20.4199   89.1875   75.4978 N   0  0  0  0  0  0  0  0  0  0  0  0
   19.7399   89.0487   73.1936 O   0  0  0  0  0  0  0  0  0  0  0  0
   19.0357   89.7016   72.2374 C   0  0  0  0  0  0  0  0  0  0  0  0
  1  2  2  0
  2  3  1  0
  2  4  1  0
  4  5  1  0
  3  6  1  0
  6  7  1  0
  3  8  1  0
  7  9  1  1
  7 10  1  0
 11  8  1  1
 10 11  1  0
 11 12  1  0
  5 13  1  0
  6 13  1  1
 10 14  1  1
 14 15  1  0
  5 16  2  0
 12 17  1  0
 15 17  1  0
 12 18  1  6
 18 19  1  0
M  END
$$$$
34
     RDKit          3D

 19 20  0  0  0  0  0  0  0  0999 V2000
   25.7301   88.9262   72.7462 N   0  0  0  0  0  0  0  0  0  0  0  0
   25.4749   90.1046   73.1966 C   0  0  1  0  0  0  0  0  0  0  0  0
   24.1322   90.4518   73.6049 N   0  0  0  0  0  0  0  0  0  0  0  0
   26.5557   90.9754   73.4975 N   0  0  0  0  0  0  0  0  0  0  0  0
   23.9973   91.7839   74.1166 C   0  0  1  0  0  0  0  0  0  0  0  0
   22.9460   89.7119   73.4258 C   0  0  0  0  0  0  0  0  0  0  0  0
   26.2561   92.1716   74.0144 C   0  0  0  0  0  0  0  0  0  0  0  0
   25.0727   92.6137   74.2895 N   0  0  0  0  0  0  0  0  0  0  0  0
   21.8698   90.6401   73.6068 C   0  0  2  0  0  0  0  0  0  0  0  0
   27.4689   93.0654   74.2592 N   0  0  0  0  0  0  0  0  0  0  0  0
   22.4797   91.8397   74.2100 C   0  0  2  0  0  0  0  0  0  0  0  0
   20.9042   89.9558   74.4935 C   0  0  1  0  0  0  0  0  0  0  0  0
   21.8275   93.0862   74.6253 C   0  0  0  0  0  0  0  0  0  0  0  0
   19.9325   89.2130   73.7989 O   0  0  0  0  0  0  0  0  0  0  0  0
   21.3032   89.3551   75.5139 O   0  0  0  0  0  0  0  0  0  0  0  0
   20.4828   89.0688   76.6954 C   0  0  0  0  0  0  0  0  0  0  0  0
   18.4602   89.5114   73.6521 C   0  0  0  0  0  0  0  0  0  0  0  0
   17.9589   88.9863   72.5168 C   0  0  0  0  0  0  0  0  0  0  0  0
   18.4775   89.6299   71.3634 O   0  0  0  0  0  0  0  0  0  0  0  0
  2  1  1  1
  2  3  1  0
  2  4  1  0
  3  5  1  0
  3  6  1  0
  4  7  1  0
  5  8  1  6
  7  8  1  0
  9  6  1  1
  7 10  1  0
  5 11  1  0
  9 11  1  0
  9 12  1  0
 11 13  1  6
 12 14  1  6
 12 15  1  0
 15 16  1  0
 14 17  1  0
 17 18  1  0
 18 19  1  0
M  END
$$$$
35
     RDKit          3D

 19 22  0  0  0  0  0  0  0  0999 V2000
   21.6626   89.9695   77.6858 C   0  0  0  0  0  0  0  0  0  0  0  0
   22.0321   89.9126   76.5502 C   0  0  0  0  0  0  0  0  0  0  0  0
   21.5500   90.6211   75.6566 C   0  0  0  0  0  0  0  0  0  0  0  0
   22.2048   90.6746   74.2654 N   0  0  0  0  0  0  0  0  0  0  0  0
   23.0675   91.7533   73.9112 C   0  0  1  0  0  0  0  0  0  0  0  0
   22.4373   89.3972   73.5601 C   0  0  0  0  0  0  0  0  0  0  0  0
   20.5767   90.8190   77.9559 C   0  0  0  0  0  0  0  0  0  0  0  0
   22.9948   92.9668   74.5026 C   0  0  0  0  0  0  0  0  0  0  0  0
   20.4900   91.3595   75.8841 C   0  0  0  0  0  0  0  0  0  0  0  0
   20.0063   91.4947   76.9609 C   0  0  0  0  0  0  0  0  0  0  0  0
   24.2206   93.5844   74.7528 C   0  0  0  0  0  0  0  0  0  0  0  0
   25.2385   92.6689   74.3444 C   0  0  1  0  0  0  0  0  0  0  0  0
   23.5173   89.1989   73.2927 N   0  0  0  0  0  0  0  0  0  0  0  0
   24.5942   90.1692   73.1135 C   0  0  1  0  0  0  0  0  0  0  0  0
   24.3553   91.4726   73.8624 C   0  0  2  0  0  0  0  0  0  0  0  0
   26.4575   92.4273   73.8081 C   0  0  0  0  0  0  0  0  0  0  0  0
   21.2317   88.9026   73.3116 O   0  0  0  0  0  0  0  0  0  0  0  0
   27.0752   91.3754   73.2603 C   0  0  0  0  0  0  0  0  0  0  0  0
   26.0970   90.0715   73.2143 C   0  0  0  0  0  0  0  0  0  0  0  0
  1  2  1  0
  2  3  1  0
  3  4  1  0
  4  5  1  0
  4  6  1  0
  1  7  1  0
  5  8  1  1
  3  9  1  0
  7 10  1  0
  9 10  1  0
  8 11  1  0
 12 11  1  6
  6 13  1  0
 13 14  1  0
 15  5  1  6
 12 15  1  0
 14 15  1  0
 12 16  1  0
  6 17  2  0
 16 18  1  0
 14 19  1  1
 18 19  1  0
M  END
$$$$
36
     RDKit          3D

 19 19  0  0  0  0  0  0  0  0999 V2000
   21.2272   90.1770   77.8729 C   0  0  0  0  0  0  0  0  0  0  0  0
   21.9243   89.9577   76.8172 C   0  0  0  0  0  0  0  0  0  0  0  0
   20.1857   90.8062   77.8890 C   0  0  0  0  0  0  0  0  0  0  0  0
   19.6732   91.3568   76.6662 C   0  0  1  0  0  0  0  0  0  0  0  0
   18.4570   92.2360   76.6398 O   0  0  0  0  0  0  0  0  0  0  0  0
   17.2100   91.7109   76.3149 C   0  0  0  0  0  0  0  0  0  0  0  0
   20.4660   91.1615   75.5506 C   0  0  0  0  0  0  0  0  0  0  0  0
   21.4946   90.5346   75.6094 C   0  0  0  0  0  0  0  0  0  0  0  0
   22.5647   90.1807   74.3180 C   0  0  0  0  0  0  0  0  0  0  0  0
   23.9346   90.1040   74.5782 O   0  0  0  0  0  0  0  0  0  0  0  0
   24.7891   89.7638   73.5419 C   0  0  1  0  0  0  0  0  0  0  0  0
   25.6147   90.9244   73.2618 C   0  0  0  0  0  0  0  0  0  0  0  0
   25.5027   88.5059   73.7185 C   0  0  0  0  0  0  0  0  0  0  0  0
   21.9720   90.2126   73.2692 O   0  0  0  0  0  0  0  0  0  0  0  0
   26.8938   90.8314   73.5045 N   0  0  0  0  0  0  0  0  0  0  0  0
   27.6840   91.9294   73.5421 C   0  0  0  0  0  0  0  0  0  0  0  0
   27.7784   92.4527   74.5238 O   0  0  0  0  0  0  0  0  0  0  0  0
   28.7077   91.8767   72.6711 O   0  0  0  0  0  0  0  0  0  0  0  0
   26.1263   88.2331   72.5277 O   0  0  0  0  0  0  0  0  0  0  0  0
  1  2  1  0
  1  3  1  0
  3  4  1  0
  4  5  1  1
  5  6  1  0
  4  7  1  0
  2  8  1  0
  7  8  1  0
  8  9  1  0
  9 10  1  0
 10 11  1  0
 11 12  1  1
 11 13  1  0
  9 14  2  0
 12 15  1  0
 15 16  1  0
 16 17  2  0
 16 18  1  0
 13 19  1  0
M  END
$$$$
37
     RDKit          3D

 19 22  0  0  0  0  0  0  0  0999 V2000
   21.0692   93.5042   75.4357 C   0  0  0  0  0  0  0  0  0  0  0  0
   22.1435   92.9808   74.8159 C   0  0  0  0  0  0  0  0  0  0  0  0
   20.6156   92.6483   76.3437 C   0  0  2  0  0  0  0  0  0  0  0  0
   22.5388   91.6364   74.9424 C   0  0  2  0  0  0  0  0  0  0  0  0
   19.5911   92.8611   77.3148 O   0  0  0  0  0  0  0  0  0  0  0  0
   21.3308   91.3465   76.6757 C   0  0  2  0  0  0  0  0  0  0  0  0
   22.1648   90.8519   75.9677 C   0  0  0  0  0  0  0  0  0  0  0  0
   23.8329   91.1287   74.1867 C   0  0  2  0  0  0  0  0  0  0  0  0
   24.9516   91.8664   73.9011 C   0  0  0  0  0  0  0  0  0  0  0  0
   23.7629   89.8514   73.5537 C   0  0  0  0  0  0  0  0  0  0  0  0
   20.3765   90.6476   77.8089 C   0  0  0  0  0  0  0  0  0  0  0  0
   26.0906   91.2922   73.2662 C   0  0  2  0  0  0  0  0  0  0  0  0
   19.2555   91.5661   78.0184 C   0  0  0  0  0  0  0  0  0  0  0  0
   25.9811   89.9956   72.8072 C   0  0  1  0  0  0  0  0  0  0  0  0
   27.1523   89.3770   72.4023 O   0  0  0  0  0  0  0  0  0  0  0  0
   28.4189   89.7010   73.0569 C   0  0  0  0  0  0  0  0  0  0  0  0
   27.4051   91.9817   73.2847 C   0  0  0  0  0  0  0  0  0  0  0  0
   28.5116   91.2137   73.3093 C   0  0  0  0  0  0  0  0  0  0  0  0
   24.8204   89.3343   72.9745 C   0  0  0  0  0  0  0  0  0  0  0  0
  1  2  1  0
  3  1  1  1
  4  2  1  1
  3  5  1  0
  3  6  1  0
  4  7  1  0
  6  7  1  6
  4  8  1  0
  8  9  1  6
  8 10  1  0
  6 11  1  0
 12  9  1  1
  5 13  1  0
 11 13  1  0
 12 14  1  0
 14 15  1  0
 15 16  1  0
 12 17  1  0
 16 18  1  0
 17 18  1  0
 10 19  1  0
 14 19  1  1
M  END
$$$$
38
     RDKit          3D

 19 22  0  0  0  0  0  0  0  0999 V2000
   24.8305   89.2476   72.7236 C   0  0  0  0  0  0  0  0  0  0  0  0
   23.8351   89.5653   73.3855 N   0  0  0  0  0  0  0  0  0  0  0  0
   25.0829   88.1214   72.2262 N   0  0  0  0  0  0  0  0  0  0  0  0
   23.4849   90.6247   73.8482 C   0  0  0  0  0  0  0  0  0  0  0  0
   22.2743   90.9744   74.5695 C   0  0  1  0  0  0  0  0  0  0  0  0
   21.9214   92.1750   74.8770 C   0  0  1  0  0  0  0  0  0  0  0  0
   25.8380   90.3785   72.4575 N   0  0  0  0  0  0  0  0  0  0  0  0
   24.4847   91.7750   73.5747 C   0  0  0  0  0  0  0  0  0  0  0  0
   21.1473   90.1030   74.8259 C   0  0  2  0  0  0  0  0  0  0  0  0
   20.7953   92.4135   75.6829 C   0  0  0  0  0  0  0  0  0  0  0  0
   22.8537   93.4909   74.6586 C   0  0  0  0  0  0  0  0  0  0  0  0
   25.6460   91.4885   73.0146 C   0  0  0  0  0  0  0  0  0  0  0  0
   26.5860   92.4729   72.8559 O   0  0  0  0  0  0  0  0  0  0  0  0
   24.0843   93.0788   73.9917 N   0  0  0  0  0  0  0  0  0  0  0  0
   20.2002   90.8182   75.6287 C   0  0  1  0  0  0  0  0  0  0  0  0
   18.9103   90.3393   76.1398 C   0  0  0  0  0  0  0  0  0  0  0  0
   18.9245   89.0375   76.5415 C   0  0  0  0  0  0  0  0  0  0  0  0
   19.4337   88.0473   75.7132 C   0  0  0  0  0  0  0  0  0  0  0  0
   20.8626   88.6531   74.7355 C   0  0  0  0  0  0  0  0  0  0  0  0
  1  2  1  0
  1  3  1  0
  2  4  1  0
  5  4  1  6
  5  6  1  0
  1  7  1  0
  4  8  1  0
  5  9  1  0
  6 10  1  1
  6 11  1  0
  7 12  1  0
  8 12  1  0
 12 13  2  0
  8 14  1  0
 11 14  1  0
  9 15  1  0
 15 10  1  6
 15 16  1  0
 16 17  1  0
 17 18  1  0
  9 19  1  1
 18 19  1  0
M  END
$$$$
39
     RDKit          3D

 19 21  0  0  0  0  0  0  0  0999 V2000
   21.0692   93.5042   75.4357 C   0  0  0  0  0  0  0  0  0  0  0  0
   22.1435   92.9808   74.8159 C   0  0  0  0  0  0  0  0  0  0  0  0
   20.6156   92.6483   76.3437 C   0  0  2  0  0  0  0  0  0  0  0  0
   22.5388   91.6364   74.9424 C   0  0  2  0  0  0  0  0  0  0  0  0
   19.5911   92.8611   77.3148 O   0  0  0  0  0  0  0  0  0  0  0  0
   21.3308   91.3465   76.6757 C   0  0  2  0  0  0  0  0  0  0  0  0
   22.1648   90.8519   75.9677 C   0  0  0  0  0  0  0  0  0  0  0  0
   23.8329   91.1287   74.1867 C   0  0  2  0  0  0  0  0  0  0  0  0
   24.9516   91.8664   73.9011 C   0  0  0  0  0  0  0  0  0  0  0  0
   23.7629   89.8514   73.5537 C   0  0  0  0  0  0  0  0  0  0  0  0
   20.3765   90.6476   77.8089 C   0  0  0  0  0  0  0  0  0  0  0  0
   25.9507   91.2501   73.3475 C   0  0  1  0  0  0  0  0  0  0  0  0
   27.3118   92.0249   73.2294 C   0  0  0  0  0  0  0  0  0  0  0  0
   25.8594   89.9531   73.0774 N   0  0  0  0  0  0  0  0  0  0  0  0
   28.4150   91.2813   73.2521 O   0  0  0  0  0  0  0  0  0  0  0  0
   19.2710   91.5715   78.0219 C   0  0  0  0  0  0  0  0  0  0  0  0
   27.3350   93.1937   72.9464 O   0  0  0  0  0  0  0  0  0  0  0  0
   24.8052   89.3019   73.0584 C   0  0  1  0  0  0  0  0  0  0  0  0
   24.8687   87.8435   72.5907 C   0  0  0  0  0  0  0  0  0  0  0  0
  1  2  1  0
  3  1  1  1
  4  2  1  1
  3  5  1  0
  3  6  1  0
  4  7  1  0
  6  7  1  6
  4  8  1  0
  8  9  1  6
  8 10  1  0
  6 11  1  0
  9 12  1  0
 12 13  1  1
 12 14  1  0
 13 15  1  0
  5 16  1  0
 11 16  1  0
 13 17  2  0
 10 18  1  0
 14 18  1  0
 18 19  1  1
M  END
$$$$
4
     RDKit          3D

 15 15  0  0  0  0  0  0  0  0999 V2000
   19.1273   89.0295   71.9956 O   0  0  0  0  0  0  0  0  0  0  0  0
   18.8170   89.5461   73.0152 C   0  0  0  0  0  0  0  0  0  0  0  0
   19.8833   89.7928   73.8659 C   0  0  1  0  0  0  0  0  0  0  0  0
   20.7124   90.8526   73.7512 N   0  0  0  0  0  0  0  0  0  0  0  0
   21.9972   91.0045   74.2696 C   0  0  2  0  0  0  0  0  0  0  0  0
   19.6615   89.8180   75.3679 C   0  0  2  0  0  0  0  0  0  0  0  0
   17.6983   89.5351   73.6828 O   0  0  0  0  0  0  0  0  0  0  0  0
   20.9010   89.8952   76.2637 C   0  0  1  0  0  0  0  0  0  0  0  0
   18.7730   88.6216   75.9876 C   0  0  0  0  0  0  0  0  0  0  0  0
   17.7822   89.0859   76.6438 O   0  0  0  0  0  0  0  0  0  0  0  0
   21.7980   91.0083   75.8305 C   0  0  1  0  0  0  0  0  0  0  0  0
   23.2652   90.8340   76.2360 O   0  0  0  0  0  0  0  0  0  0  0  0
   22.5893   92.3656   73.8984 C   0  0  0  0  0  0  0  0  0  0  0  0
   23.1080   93.0872   74.9045 O   0  0  0  0  0  0  0  0  0  0  0  0
   20.7434   90.1582   77.7209 O   0  0  0  0  0  0  0  0  0  0  0  0
  1  2  2  0
  3  2  1  6
  3  4  1  0
  4  5  1  0
  3  6  1  0
  2  7  1  0
  6  8  1  0
  6  9  1  1
  9 10  1  0
  5 11  1  0
  8 11  1  0
 11 12  1  1
  5 13  1  6
 13 14  1  0
  8 15  1  1
M  END
$$$$
40
     RDKit          3D

 19 21  0  0  0  0  0  0  0  0999 V2000
   24.8305   89.2476   72.7236 C   0  0  0  0  0  0  0  0  0  0  0  0
   23.8351   89.5653   73.3855 N   0  0  0  0  0  0  0  0  0  0  0  0
   25.0829   88.1214   72.2262 N   0  0  0  0  0  0  0  0  0  0  0  0
   23.4849   90.6247   73.8482 C   0  0  0  0  0  0  0  0  0  0  0  0
   22.2743   90.9744   74.5695 C   0  0  1  0  0  0  0  0  0  0  0  0
   21.9214   92.1750   74.8770 C   0  0  1  0  0  0  0  0  0  0  0  0
   25.8380   90.3785   72.4575 N   0  0  0  0  0  0  0  0  0  0  0  0
   24.4847   91.7750   73.5747 C   0  0  0  0  0  0  0  0  0  0  0  0
   21.1473   90.1030   74.8259 C   0  0  0  0  0  0  0  0  0  0  0  0
   20.7953   92.4135   75.6829 C   0  0  0  0  0  0  0  0  0  0  0  0
   22.8537   93.4909   74.6586 C   0  0  0  0  0  0  0  0  0  0  0  0
   25.6460   91.4885   73.0146 C   0  0  0  0  0  0  0  0  0  0  0  0
   26.5860   92.4729   72.8559 O   0  0  0  0  0  0  0  0  0  0  0  0
   24.0843   93.0788   73.9917 N   0  0  0  0  0  0  0  0  0  0  0  0
   20.2214   91.0177   75.7152 C   0  0  2  0  0  0  0  0  0  0  0  0
   20.0412   90.2494   76.9538 C   0  0  0  0  0  0  0  0  0  0  0  0
   19.6798   90.8573   77.9856 O   0  0  0  0  0  0  0  0  0  0  0  0
   19.2425   88.9885   76.8779 O   0  0  0  0  0  0  0  0  0  0  0  0
   21.4742   89.6380   77.4650 C   0  0  0  0  0  0  0  0  0  0  0  0
  1  2  1  0
  1  3  1  0
  2  4  1  0
  4  5  1  0
  5  6  1  0
  1  7  1  0
  4  8  1  0
  5  9  1  6
  6 10  1  1
  6 11  1  0
  7 12  1  0
  8 12  1  0
 12 13  2  0
  8 14  1  0
 11 14  1  0
  9 15  1  0
 10 15  1  0
 15 16  1  1
 16 17  1  0
 16 18  1  0
 16 19  1  0
M  END
$$$$
41
     RDKit          3D

 19 20  0  0  0  0  0  0  0  0999 V2000
   25.7301   88.9262   72.7462 N   0  0  0  0  0  0  0  0  0  0  0  0
   25.4749   90.1046   73.1966 C   0  0  1  0  0  0  0  0  0  0  0  0
   24.1322   90.4518   73.6049 N   0  0  0  0  0  0  0  0  0  0  0  0
   26.5557   90.9754   73.4975 N   0  0  0  0  0  0  0  0  0  0  0  0
   23.9973   91.7839   74.1166 C   0  0  1  0  0  0  0  0  0  0  0  0
   22.9460   89.7119   73.4258 C   0  0  0  0  0  0  0  0  0  0  0  0
   26.2561   92.1716   74.0144 C   0  0  0  0  0  0  0  0  0  0  0  0
   25.0727   92.6137   74.2895 N   0  0  0  0  0  0  0  0  0  0  0  0
   21.8698   90.6401   73.6068 C   0  0  2  0  0  0  0  0  0  0  0  0
   27.4689   93.0654   74.2592 N   0  0  0  0  0  0  0  0  0  0  0  0
   22.4797   91.8397   74.2100 C   0  0  2  0  0  0  0  0  0  0  0  0
   20.9042   89.9558   74.4935 C   0  0  1  0  0  0  0  0  0  0  0  0
   21.8275   93.0862   74.6253 C   0  0  0  0  0  0  0  0  0  0  0  0
   19.9325   89.2130   73.7989 O   0  0  0  0  0  0  0  0  0  0  0  0
   21.3032   89.3551   75.5139 O   0  0  0  0  0  0  0  0  0  0  0  0
   20.4828   89.0688   76.6954 C   0  0  0  0  0  0  0  0  0  0  0  0
   18.4602   89.5114   73.6521 C   0  0  0  0  0  0  0  0  0  0  0  0
   17.8656   89.8503   74.6762 O   0  0  0  0  0  0  0  0  0  0  0  0
   18.0734   89.6681   72.3286 N   0  0  0  0  0  0  0  0  0  0  0  0
  2  1  1  1
  2  3  1  0
  2  4  1  0
  3  5  1  0
  3  6  1  0
  4  7  1  0
  5  8  1  6
  7  8  1  0
  9  6  1  1
  7 10  1  0
  5 11  1  0
  9 11  1  0
  9 12  1  0
 11 13  1  6
 12 14  1  6
 12 15  1  0
 15 16  1  0
 14 17  1  0
 17 18  2  0
 17 19  1  0
M  END
$$$$
42
     RDKit          3D

 20 22  0  0  0  0  0  0  0  0999 V2000
   21.0692   93.5042   75.4357 C   0  0  0  0  0  0  0  0  0  0  0  0
   20.7887   92.6296   76.4947 C   0  0  0  0  0  0  0  0  0  0  0  0
   21.5626   91.4080   76.6344 C   0  0  0  0  0  0  0  0  0  0  0  0
   22.5698   91.1743   75.6480 C   0  0  0  0  0  0  0  0  0  0  0  0
   21.3121   90.4214   77.7342 C   0  0  0  0  0  0  0  0  0  0  0  0
   22.1618   93.1514   74.6355 C   0  0  0  0  0  0  0  0  0  0  0  0
   22.8640   91.9933   74.7012 C   0  0  0  0  0  0  0  0  0  0  0  0
   19.9796   89.9268   77.7048 C   0  0  0  0  0  0  0  0  0  0  0  0
   23.9865   91.8372   73.6459 C   0  0  1  0  0  0  0  0  0  0  0  0
   24.9995   92.6379   73.5868 N   0  0  0  0  0  0  0  0  0  0  0  0
   26.3008   92.3426   73.6956 C   0  0  1  0  0  0  0  0  0  0  0  0
   24.3541   90.3689   73.5676 C   0  0  2  0  0  0  0  0  0  0  0  0
   25.5885   90.0214   73.1178 C   0  0  2  0  0  0  0  0  0  0  0  0
   23.1797   89.3456   73.2380 C   0  0  2  0  0  0  0  0  0  0  0  0
   25.9141   88.7693   72.8484 N   0  0  0  0  0  0  0  0  0  0  0  0
   21.9257   89.6078   73.6624 O   0  0  0  0  0  0  0  0  0  0  0  0
   26.6279   90.9832   73.2794 N   0  0  0  0  0  0  0  0  0  0  0  0
   27.3348   93.1943   73.8936 N   0  0  0  0  0  0  0  0  0  0  0  0
   24.6994   88.0345   72.7633 C   0  0  0  0  0  0  0  0  0  0  0  0
   23.5642   88.1975   72.8602 N   0  0  0  0  0  0  0  0  0  0  0  0
  1  2  1  0
  2  3  1  0
  3  4  1  0
  3  5  1  0
  1  6  1  0
  4  7  1  0
  6  7  1  0
  5  8  1  0
  9  7  1  1
  9 10  1  0
 10 11  1  0
 12  9  1  6
 12 13  1  0
 12 14  1  0
 13 15  1  1
 14 16  1  1
 11 17  1  0
 13 17  1  0
 11 18  1  6
 15 19  1  0
 14 20  1  0
 19 20  1  0
M  END
$$$$
43
     RDKit          3D

 20 21  0  0  0  0  0  0  0  0999 V2000
   19.1273   89.0295   71.9956 O   0  0  0  0  0  0  0  0  0  0  0  0
   18.8170   89.5461   73.0152 C   0  0  0  0  0  0  0  0  0  0  0  0
   19.8833   89.7928   73.8659 C   0  0  1  0  0  0  0  0  0  0  0  0
   20.7124   90.8526   73.7512 N   0  0  0  0  0  0  0  0  0  0  0  0
   21.9972   91.0045   74.2696 C   0  0  1  0  0  0  0  0  0  0  0  0
   19.6615   89.8180   75.3679 C   0  0  2  0  0  0  0  0  0  0  0  0
   17.6983   89.5351   73.6828 O   0  0  0  0  0  0  0  0  0  0  0  0
   20.9010   89.8952   76.2637 C   0  0  0  0  0  0  0  0  0  0  0  0
   18.7730   88.6216   75.9876 C   0  0  0  0  0  0  0  0  0  0  0  0
   22.8236   92.0277   73.7628 C   0  0  2  0  0  0  0  0  0  0  0  0
   24.2169   91.6267   73.5942 C   0  0  0  0  0  0  0  0  0  0  0  0
   24.5203   90.2919   73.7664 C   0  0  0  0  0  0  0  0  0  0  0  0
   25.9722   89.9134   73.5777 N   0  0  0  0  0  0  0  0  0  0  0  0
   23.6552   89.1438   73.6578 O   0  0  0  0  0  0  0  0  0  0  0  0
   22.4312   93.3003   73.8735 O   0  0  0  0  0  0  0  0  0  0  0  0
   21.7551   90.6681   75.6577 C   0  0  0  0  0  0  0  0  0  0  0  0
   26.7703   90.5646   73.2640 N   0  0  0  0  0  0  0  0  0  0  0  0
   25.2801   92.4394   73.2559 N   0  0  0  0  0  0  0  0  0  0  0  0
   26.5220   91.9579   73.1195 C   0  0  0  0  0  0  0  0  0  0  0  0
   27.5902   92.8071   72.8588 O   0  0  0  0  0  0  0  0  0  0  0  0
  1  2  2  0
  3  2  1  6
  3  4  1  0
  4  5  1  0
  3  6  1  0
  2  7  1  0
  6  8  1  0
  6  9  1  1
  5 10  1  0
 10 11  1  0
 11 12  1  0
 12 13  1  0
 12 14  2  0
 10 15  1  1
  5 16  1  1
  8 16  1  0
 13 17  1  0
 11 18  1  0
 17 19  1  0
 18 19  1  0
 19 20  2  0
M  END
$$$$
44
     RDKit          3D

 20 21  0  0  0  0  0  0  0  0999 V2000
   25.7301   88.9262   72.7462 N   0  0  0  0  0  0  0  0  0  0  0  0
   25.4749   90.1046   73.1966 C   0  0  1  0  0  0  0  0  0  0  0  0
   24.1322   90.4518   73.6049 N   0  0  0  0  0  0  0  0  0  0  0  0
   26.5557   90.9754   73.4975 N   0  0  0  0  0  0  0  0  0  0  0  0
   23.9973   91.7839   74.1166 C   0  0  1  0  0  0  0  0  0  0  0  0
   22.9460   89.7119   73.4258 C   0  0  0  0  0  0  0  0  0  0  0  0
   26.2561   92.1716   74.0144 C   0  0  0  0  0  0  0  0  0  0  0  0
   25.0727   92.6137   74.2895 N   0  0  0  0  0  0  0  0  0  0  0  0
   21.8698   90.6401   73.6068 C   0  0  2  0  0  0  0  0  0  0  0  0
   27.4689   93.0654   74.2592 N   0  0  0  0  0  0  0  0  0  0  0  0
   22.4797   91.8397   74.2100 C   0  0  2  0  0  0  0  0  0  0  0  0
   20.9042   89.9558   74.4935 C   0  0  1  0  0  0  0  0  0  0  0  0
   21.8275   93.0862   74.6253 C   0  0  0  0  0  0  0  0  0  0  0  0
   19.9325   89.2130   73.7989 O   0  0  0  0  0  0  0  0  0  0  0  0
   21.3032   89.3551   75.5139 O   0  0  0  0  0  0  0  0  0  0  0  0
   20.4828   89.0688   76.6954 C   0  0  0  0  0  0  0  0  0  0  0  0
   18.4602   89.5114   73.6521 C   0  0  1  0  0  0  0  0  0  0  0  0
   17.9589   88.9863   72.5168 C   0  0  0  0  0  0  0  0  0  0  0  0
   17.7811   88.8893   74.8566 O   0  0  0  0  0  0  0  0  0  0  0  0
   18.7738   89.4393   71.3207 O   0  0  0  0  0  0  0  0  0  0  0  0
  2  1  1  1
  2  3  1  0
  2  4  1  0
  3  5  1  0
  3  6  1  0
  4  7  1  0
  5  8  1  6
  7  8  1  0
  9  6  1  1
  7 10  1  0
  5 11  1  0
  9 11  1  0
  9 12  1  0
 11 13  1  6
 12 14  1  6
 12 15  1  0
 15 16  1  0
 14 17  1  0
 17 18  1  0
 17 19  1  1
 18 20  1  0
M  END
$$$$
45
     RDKit          3D

 20 21  0  0  0  0  0  0  0  0999 V2000
   19.1720   89.7260   71.4704 O   0  0  0  0  0  0  0  0  0  0  0  0
   19.0943   89.7112   72.6073 C   0  0  0  0  0  0  0  0  0  0  0  0
   20.2608   89.9192   73.3814 C   0  0  2  0  0  0  0  0  0  0  0  0
   17.9712   89.3770   73.3332 O   0  0  0  0  0  0  0  0  0  0  0  0
   21.5312   90.0129   73.0891 N   0  0  0  0  0  0  0  0  0  0  0  0
   19.9605   89.9656   74.8835 C   0  0  0  0  0  0  0  0  0  0  0  0
   22.5653   90.2178   73.8490 C   0  0  2  0  0  0  0  0  0  0  0  0
   23.9353   90.3698   73.2428 C   0  0  1  0  0  0  0  0  0  0  0  0
   22.5256   89.9280   75.1924 C   0  0  1  0  0  0  0  0  0  0  0  0
   24.5680   91.6621   73.5020 C   0  0  2  0  0  0  0  0  0  0  0  0
   23.7789   92.7366   73.9957 C   0  0  0  0  0  0  0  0  0  0  0  0
   23.3834   90.2015   76.1175 O   0  0  0  0  0  0  0  0  0  0  0  0
   21.0011   89.9794   75.6313 C   0  0  1  0  0  0  0  0  0  0  0  0
   24.9490   89.3224   73.3978 C   0  0  0  0  0  0  0  0  0  0  0  0
   25.9228   91.8275   73.1065 N   0  0  0  0  0  0  0  0  0  0  0  0
   26.2041   89.5296   72.9768 N   0  0  0  0  0  0  0  0  0  0  0  0
   20.9489   90.2100   77.1508 C   0  0  0  0  0  0  0  0  0  0  0  0
   22.5324   93.1265   73.4539 O   0  0  0  0  0  0  0  0  0  0  0  0
   26.7039   90.7727   72.9685 C   0  0  0  0  0  0  0  0  0  0  0  0
   28.1000   91.0185   72.7750 N   0  0  0  0  0  0  0  0  0  0  0  0
  1  2  2  0
  3  2  1  1
  2  4  1  0
  3  5  1  0
  3  6  1  0
  7  5  1  6
  7  8  1  0
  7  9  1  0
  8 10  1  0
 10 11  1  6
  9 12  1  1
  6 13  1  0
  9 13  1  0
  8 14  1  1
 10 15  1  0
 14 16  1  0
 13 17  1  6
 11 18  1  0
 15 19  1  0
 16 19  1  0
 19 20  1  0
M  END
$$$$
46
     RDKit          3D

 20 21  0  0  0  0  0  0  0  0999 V2000
   21.0692   93.5042   75.4357 C   0  0  0  0  0  0  0  0  0  0  0  0
   20.7887   92.6296   76.4947 C   0  0  0  0  0  0  0  0  0  0  0  0
   21.5626   91.4080   76.6344 C   0  0  0  0  0  0  0  0  0  0  0  0
   22.5698   91.1743   75.6480 C   0  0  0  0  0  0  0  0  0  0  0  0
   21.3121   90.4214   77.7342 C   0  0  0  0  0  0  0  0  0  0  0  0
   22.1618   93.1514   74.6355 C   0  0  0  0  0  0  0  0  0  0  0  0
   20.8389   90.8168   78.7223 F   0  0  0  0  0  0  0  0  0  0  0  0
   22.4387   89.9715   78.3678 F   0  0  0  0  0  0  0  0  0  0  0  0
   22.8804   92.0776   74.6758 C   0  0  0  0  0  0  0  0  0  0  0  0
   20.5817   89.3907   77.1608 F   0  0  0  0  0  0  0  0  0  0  0  0
   24.1072   91.9516   73.5568 C   0  0  0  0  0  0  0  0  0  0  0  0
   25.1849   91.3364   74.0546 N   0  0  0  0  0  0  0  0  0  0  0  0
   26.2780   92.1569   74.1349 C   0  0  0  0  0  0  0  0  0  0  0  0
   27.5538   91.5364   73.7552 N   0  0  0  0  0  0  0  0  0  0  0  0
   26.3545   93.3407   74.3523 O   0  0  0  0  0  0  0  0  0  0  0  0
   25.6013   89.9903   73.3594 C   0  0  2  0  0  0  0  0  0  0  0  0
   24.9421   88.9045   73.7515 C   0  0  0  0  0  0  0  0  0  0  0  0
   24.7956   87.9237   72.6710 O   0  0  0  0  0  0  0  0  0  0  0  0
   28.8258   92.0003   73.7026 C   0  0  0  0  0  0  0  0  0  0  0  0
   27.1007   90.0276   73.5572 C   0  0  0  0  0  0  0  0  0  0  0  0
  1  2  1  0
  2  3  1  0
  3  4  1  0
  3  5  1  0
  1  6  1  0
  5  7  1  0
  5  8  1  0
  4  9  1  0
  6  9  1  0
  5 10  1  0
  9 11  1  0
 11 12  1  0
 12 13  1  0
 13 14  1  0
 13 15  2  0
 12 16  1  0
 16 17  1  1
 17 18  1  0
 14 19  1  0
 14 20  1  0
 16 20  1  0
M  END
$$$$
47
     RDKit          3D

 20 22  0  0  0  0  0  0  0  0999 V2000
   21.0692   93.5042   75.4357 C   0  0  0  0  0  0  0  0  0  0  0  0
   22.1435   92.9808   74.8159 C   0  0  0  0  0  0  0  0  0  0  0  0
   20.6156   92.6483   76.3437 C   0  0  2  0  0  0  0  0  0  0  0  0
   22.5388   91.6364   74.9424 C   0  0  2  0  0  0  0  0  0  0  0  0
   19.5911   92.8611   77.3148 O   0  0  0  0  0  0  0  0  0  0  0  0
   21.3308   91.3465   76.6757 C   0  0  2  0  0  0  0  0  0  0  0  0
   22.1648   90.8519   75.9677 C   0  0  0  0  0  0  0  0  0  0  0  0
   23.8329   91.1287   74.1867 C   0  0  2  0  0  0  0  0  0  0  0  0
   24.9516   91.8664   73.9011 C   0  0  0  0  0  0  0  0  0  0  0  0
   23.7629   89.8514   73.5537 C   0  0  0  0  0  0  0  0  0  0  0  0
   20.3765   90.6476   77.8089 C   0  0  0  0  0  0  0  0  0  0  0  0
   25.9507   91.2501   73.3475 C   0  0  1  0  0  0  0  0  0  0  0  0
   27.3118   92.0249   73.2294 C   0  0  0  0  0  0  0  0  0  0  0  0
   25.8594   89.9531   73.0774 N   0  0  0  0  0  0  0  0  0  0  0  0
   28.4150   91.2813   73.2521 O   0  0  0  0  0  0  0  0  0  0  0  0
   19.2710   91.5715   78.0219 C   0  0  0  0  0  0  0  0  0  0  0  0
   24.7043   89.4363   73.0902 C   0  0  1  0  0  0  0  0  0  0  0  0
   24.7268   88.0061   72.6716 O   0  0  0  0  0  0  0  0  0  0  0  0
   27.3488   93.0841   72.9183 O   0  0  0  0  0  0  0  0  0  0  0  0
   25.7958   87.3875   72.1063 C   0  0  0  0  0  0  0  0  0  0  0  0
  1  2  1  0
  3  1  1  1
  4  2  1  1
  3  5  1  0
  3  6  1  0
  4  7  1  0
  6  7  1  6
  4  8  1  0
  8  9  1  6
  8 10  1  0
  6 11  1  0
  9 12  1  0
 12 13  1  1
 12 14  1  0
 13 15  1  0
  5 16  1  0
 11 16  1  0
 10 17  1  0
 14 17  1  0
 17 18  1  1
 13 19  2  0
 18 20  1  0
M  END
$$$$
48
     RDKit          3D

 20 21  0  0  0  0  0  0  0  0999 V2000
   24.0844   93.3999   73.7595 O   0  0  0  0  0  0  0  0  0  0  0  0
   22.9226   92.9057   74.0272 C   0  0  0  0  0  0  0  0  0  0  0  0
   24.9804   92.2097   73.7311 C   0  0  1  0  0  0  0  0  0  0  0  0
   22.9186   91.4939   74.0394 C   0  0  0  0  0  0  0  0  0  0  0  0
   24.3161   91.0517   73.7933 C   0  0  1  0  0  0  0  0  0  0  0  0
   21.8412   90.5247   74.2127 C   0  0  0  0  0  0  0  0  0  0  0  0
   24.8878   89.7192   73.5818 C   0  0  1  0  0  0  0  0  0  0  0  0
   20.6331   90.9219   74.7421 N   0  0  0  0  0  0  0  0  0  0  0  0
   26.3953   92.1152   73.4490 C   0  0  1  0  0  0  0  0  0  0  0  0
   20.4048   92.0204   75.4923 C   0  0  0  0  0  0  0  0  0  0  0  0
   19.4044   90.1130   74.2298 C   0  0  0  0  0  0  0  0  0  0  0  0
   20.3705   91.7394   77.0034 C   0  0  0  0  0  0  0  0  0  0  0  0
   24.1381   88.5450   73.6215 O   0  0  0  0  0  0  0  0  0  0  0  0
   27.2166   93.2672   73.4821 O   0  0  0  0  0  0  0  0  0  0  0  0
   26.2288   89.7523   73.2349 C   0  0  0  0  0  0  0  0  0  0  0  0
   27.0049   90.9371   73.2732 C   0  0  0  0  0  0  0  0  0  0  0  0
   18.4146   90.1175   74.6546 O   0  0  0  0  0  0  0  0  0  0  0  0
   20.6602   90.5639   77.4304 O   0  0  0  0  0  0  0  0  0  0  0  0
   19.6977   89.1488   73.0730 N   0  0  0  0  0  0  0  0  0  0  0  0
   18.5703   88.5198   72.4840 O   0  0  0  0  0  0  0  0  0  0  0  0
  1  2  1  0
  3  1  1  6
  2  4  1  0
  3  5  1  0
  5  4  1  6
  4  6  1  0
  5  7  1  0
  6  8  1  0
  3  9  1  0
  8 10  1  0
  8 11  1  0
 10 12  1  0
  7 13  1  6
  9 14  1  1
  7 15  1  0
  9 16  1  0
 15 16  1  0
 11 17  2  0
 12 18  1  0
 11 19  1  0
 19 20  1  0
M  END
$$$$
49
     RDKit          3D

 20 21  0  0  0  0  0  0  0  0999 V2000
   21.5014   90.3027   77.9188 C   0  0  0  0  0  0  0  0  0  0  0  0
   22.0635   90.0059   76.8278 C   0  0  0  0  0  0  0  0  0  0  0  0
   21.5666   90.4529   75.6775 C   0  0  2  0  0  0  0  0  0  0  0  0
   20.2809   91.0284   77.8911 C   0  0  0  0  0  0  0  0  0  0  0  0
   19.7446   91.4225   76.6505 C   0  0  0  0  0  0  0  0  0  0  0  0
   18.5407   92.2634   76.5767 O   0  0  0  0  0  0  0  0  0  0  0  0
   17.9863   92.7780   77.7985 C   0  0  0  0  0  0  0  0  0  0  0  0
   20.2035   91.1312   75.4142 C   0  0  0  0  0  0  0  0  0  0  0  0
   22.2209   90.0563   74.2942 C   0  0  0  0  0  0  0  0  0  0  0  0
   21.6580   89.7046   73.2719 O   0  0  0  0  0  0  0  0  0  0  0  0
   23.6194   89.9407   74.3123 N   0  0  0  0  0  0  0  0  0  0  0  0
   24.3845   89.3771   73.2233 C   0  0  0  0  0  0  0  0  0  0  0  0
   25.6932   90.1146   73.0394 C   0  0  2  0  0  0  0  0  0  0  0  0
   24.0768   88.4224   72.5504 O   0  0  0  0  0  0  0  0  0  0  0  0
   26.7431   89.6034   73.7136 O   0  0  0  0  0  0  0  0  0  0  0  0
   25.5714   91.5809   73.3316 C   0  0  0  0  0  0  0  0  0  0  0  0
   26.7774   92.2028   73.5439 C   0  0  1  0  0  0  0  0  0  0  0  0
   24.4144   92.2961   73.3325 O   0  0  0  0  0  0  0  0  0  0  0  0
   26.7842   93.0486   74.7122 O   0  0  0  0  0  0  0  0  0  0  0  0
   27.7882   90.9973   73.8944 C   0  0  0  0  0  0  0  0  0  0  0  0
  1  2  1  0
  2  3  1  0
  1  4  1  0
  4  5  1  0
  5  6  1  0
  6  7  1  0
  3  8  1  0
  5  8  1  0
  3  9  1  6
  9 10  2  0
  9 11  1  0
 11 12  1  0
 13 12  1  1
 12 14  2  0
 13 15  1  0
 13 16  1  0
 16 17  1  0
 16 18  2  0
 17 19  1  1
 15 20  1  0
 17 20  1  0
M  END
$$$$
5
     RDKit          3D

 15 15  0  0  0  0  0  0  0  0999 V2000
   19.1273   89.0295   71.9956 O   0  0  0  0  0  0  0  0  0  0  0  0
   18.8170   89.5461   73.0152 C   0  0  0  0  0  0  0  0  0  0  0  0
   19.8833   89.7928   73.8659 C   0  0  1  0  0  0  0  0  0  0  0  0
   20.7124   90.8526   73.7512 N   0  0  0  0  0  0  0  0  0  0  0  0
   21.9972   91.0045   74.2696 C   0  0  2  0  0  0  0  0  0  0  0  0
   19.6615   89.8180   75.3679 C   0  0  2  0  0  0  0  0  0  0  0  0
   17.6983   89.5351   73.6828 O   0  0  0  0  0  0  0  0  0  0  0  0
   20.9010   89.8952   76.2637 C   0  0  1  0  0  0  0  0  0  0  0  0
   18.7730   88.6216   75.9876 C   0  0  0  0  0  0  0  0  0  0  0  0
   17.7822   89.0859   76.6438 O   0  0  0  0  0  0  0  0  0  0  0  0
   21.7980   91.0083   75.8305 C   0  0  1  0  0  0  0  0  0  0  0  0
   23.2652   90.8340   76.2360 O   0  0  0  0  0  0  0  0  0  0  0  0
   22.5893   92.3656   73.8984 C   0  0  0  0  0  0  0  0  0  0  0  0
   23.1080   93.0872   74.9045 O   0  0  0  0  0  0  0  0  0  0  0  0
   20.7434   90.1582   77.7209 C   0  0  0  0  0  0  0  0  0  0  0  0
  1  2  2  0
  3  2  1  6
  3  4  1  0
  4  5  1  0
  3  6  1  0
  2  7  1  0
  6  8  1  0
  6  9  1  1
  9 10  1  0
  5 11  1  0
  8 11  1  0
 11 12  1  1
  5 13  1  6
 13 14  1  0
  8 15  1  1
M  END
$$$$
50
     RDKit          3D

 20 22  0  0  0  0  0  0  0  0999 V2000
   24.0844   93.3999   73.7595 O   0  0  0  0  0  0  0  0  0  0  0  0
   22.9226   92.9057   74.0272 C   0  0  0  0  0  0  0  0  0  0  0  0
   24.9804   92.2097   73.7311 C   0  0  1  0  0  0  0  0  0  0  0  0
   22.9186   91.4939   74.0394 C   0  0  0  0  0  0  0  0  0  0  0  0
   24.3161   91.0517   73.7933 C   0  0  1  0  0  0  0  0  0  0  0  0
   21.8412   90.5247   74.2127 C   0  0  1  0  0  0  0  0  0  0  0  0
   24.8878   89.7192   73.5818 C   0  0  1  0  0  0  0  0  0  0  0  0
   20.6331   90.9219   74.7421 N   0  0  0  0  0  0  0  0  0  0  0  0
   26.3953   92.1152   73.4490 C   0  0  1  0  0  0  0  0  0  0  0  0
   20.4048   92.0204   75.4923 C   0  0  0  0  0  0  0  0  0  0  0  0
   19.4044   90.1130   74.2298 C   0  0  0  0  0  0  0  0  0  0  0  0
   20.3705   91.7394   77.0034 C   0  0  0  0  0  0  0  0  0  0  0  0
   24.1381   88.5450   73.6215 O   0  0  0  0  0  0  0  0  0  0  0  0
   27.2166   93.2672   73.4821 O   0  0  0  0  0  0  0  0  0  0  0  0
   26.2288   89.7523   73.2349 C   0  0  0  0  0  0  0  0  0  0  0  0
   27.0049   90.9371   73.2732 C   0  0  0  0  0  0  0  0  0  0  0  0
   18.4146   90.1175   74.6546 O   0  0  0  0  0  0  0  0  0  0  0  0
   20.6602   90.5639   77.4304 O   0  0  0  0  0  0  0  0  0  0  0  0
   21.6245   89.5056   73.2580 O   0  0  0  0  0  0  0  0  0  0  0  0
   20.1886   89.2260   73.3163 C   0  0  0  0  0  0  0  0  0  0  0  0
  1  2  1  0
  3  1  1  6
  2  4  1  0
  3  5  1  0
  5  4  1  6
  6  4  1  6
  5  7  1  0
  6  8  1  0
  3  9  1  0
  8 10  1  0
  8 11  1  0
 10 12  1  0
  7 13  1  6
  9 14  1  1
  7 15  1  0
  9 16  1  0
 15 16  1  0
 11 17  2  0
 12 18  1  0
  6 19  1  0
 11 20  1  0
 19 20  1  0
M  END
$$$$
51
     RDKit          3D

 20 21  0  0  0  0  0  0  0  0999 V2000
   19.1720   89.7260   71.4704 O   0  0  0  0  0  0  0  0  0  0  0  0
   19.0943   89.7112   72.6073 C   0  0  0  0  0  0  0  0  0  0  0  0
   20.2608   89.9192   73.3814 C   0  0  2  0  0  0  0  0  0  0  0  0
   17.9712   89.3770   73.3332 O   0  0  0  0  0  0  0  0  0  0  0  0
   21.5312   90.0129   73.0891 N   0  0  0  0  0  0  0  0  0  0  0  0
   19.9605   89.9656   74.8835 C   0  0  0  0  0  0  0  0  0  0  0  0
   22.5653   90.2178   73.8490 C   0  0  2  0  0  0  0  0  0  0  0  0
   23.9353   90.3698   73.2428 C   0  0  1  0  0  0  0  0  0  0  0  0
   22.5256   89.9280   75.1924 C   0  0  1  0  0  0  0  0  0  0  0  0
   24.5680   91.6621   73.5020 C   0  0  2  0  0  0  0  0  0  0  0  0
   23.7789   92.7366   73.9957 C   0  0  0  0  0  0  0  0  0  0  0  0
   23.3834   90.2015   76.1175 O   0  0  0  0  0  0  0  0  0  0  0  0
   21.0011   89.9794   75.6313 C   0  0  1  0  0  0  0  0  0  0  0  0
   25.9558   91.7339   73.0795 C   0  0  2  0  0  0  0  0  0  0  0  0
   26.6847   90.5343   72.9224 N   0  0  0  0  0  0  0  0  0  0  0  0
   26.7186   92.6641   73.9076 O   0  0  0  0  0  0  0  0  0  0  0  0
   25.9843   89.3454   72.7563 C   0  0  0  0  0  0  0  0  0  0  0  0
   24.6338   89.2767   73.0324 N   0  0  0  0  0  0  0  0  0  0  0  0
   27.9826   92.2456   74.3706 C   0  0  0  0  0  0  0  0  0  0  0  0
   20.9089   90.2210   77.1371 C   0  0  0  0  0  0  0  0  0  0  0  0
  1  2  2  0
  3  2  1  1
  2  4  1  0
  3  5  1  0
  3  6  1  0
  7  5  1  6
  7  8  1  0
  7  9  1  0
  8 10  1  0
 10 11  1  6
  9 12  1  1
  6 13  1  0
  9 13  1  0
 10 14  1  0
 14 15  1  0
 14 16  1  1
 15 17  1  0
  8 18  1  1
 17 18  1  0
 16 19  1  0
 13 20  1  6
M  END
$$$$
52
     RDKit          3D

 20 21  0  0  0  0  0  0  0  0999 V2000
   19.1720   89.7260   71.4704 O   0  0  0  0  0  0  0  0  0  0  0  0
   19.3383   89.2690   72.7181 C   0  0  0  0  0  0  0  0  0  0  0  0
   18.4893   88.3938   73.2712 O   0  0  0  0  0  0  0  0  0  0  0  0
   20.5241   89.5843   73.4895 C   0  0  1  0  0  0  0  0  0  0  0  0
   21.4920   90.0908   73.1844 N   0  0  0  0  0  0  0  0  0  0  0  0
   20.3428   89.2863   74.9798 C   0  0  0  0  0  0  0  0  0  0  0  0
   21.3104   89.8304   75.5096 N   0  0  0  0  0  0  0  0  0  0  0  0
   22.2056   90.3016   74.4514 C   0  0  2  0  0  0  0  0  0  0  0  0
   23.3722   91.0122   74.4536 C   0  0  1  0  0  0  0  0  0  0  0  0
   24.5349   90.3199   73.8902 C   0  0  2  0  0  0  0  0  0  0  0  0
   23.5395   92.4495   74.1180 C   0  0  0  0  0  0  0  0  0  0  0  0
   24.6758   88.9582   73.7502 N   0  0  0  0  0  0  0  0  0  0  0  0
   25.6677   91.1763   73.6449 N   0  0  0  0  0  0  0  0  0  0  0  0
   21.5485   90.2738   76.8800 C   0  0  0  0  0  0  0  0  0  0  0  0
   20.7619   91.4076   77.3221 C   0  0  0  0  0  0  0  0  0  0  0  0
   25.2462   88.5193   72.5607 C   0  0  0  0  0  0  0  0  0  0  0  0
   21.4867   92.5445   77.2047 O   0  0  0  0  0  0  0  0  0  0  0  0
   25.0175   92.5801   73.8969 N   0  0  0  0  0  0  0  0  0  0  0  0
   26.9971   91.0772   73.3869 C   0  0  0  0  0  0  0  0  0  0  0  0
   27.8638   91.8618   74.0894 C   0  0  0  0  0  0  0  0  0  0  0  0
  1  2  1  0
  2  3  2  0
  4  2  1  1
  4  5  1  0
  4  6  1  0
  6  7  1  0
  8  5  1  6
  7  8  1  0
  8  9  1  0
  9 10  1  0
  9 11  1  6
 10 12  1  1
 10 13  1  0
  7 14  1  0
 14 15  1  0
 12 16  1  0
 15 17  1  0
 11 18  1  0
 13 18  1  0
 13 19  1  0
 19 20  1  0
M  END
$$$$
53
     RDKit          3D

 20 22  0  0  0  0  0  0  0  0999 V2000
   21.0692   93.5042   75.4357 C   0  0  0  0  0  0  0  0  0  0  0  0
   20.7887   92.6296   76.4947 C   0  0  0  0  0  0  0  0  0  0  0  0
   21.5626   91.4080   76.6344 C   0  0  0  0  0  0  0  0  0  0  0  0
   22.5698   91.1743   75.6480 C   0  0  0  0  0  0  0  0  0  0  0  0
   21.3121   90.4214   77.7342 C   0  0  0  0  0  0  0  0  0  0  0  0
   22.1618   93.1514   74.6355 C   0  0  0  0  0  0  0  0  0  0  0  0
   22.8640   91.9933   74.7012 C   0  0  0  0  0  0  0  0  0  0  0  0
   19.9796   89.9268   77.7048 C   0  0  0  0  0  0  0  0  0  0  0  0
   23.9865   91.8372   73.6459 C   0  0  1  0  0  0  0  0  0  0  0  0
   24.9995   92.6379   73.5868 N   0  0  0  0  0  0  0  0  0  0  0  0
   26.3008   92.3426   73.6956 C   0  0  0  0  0  0  0  0  0  0  0  0
   24.3541   90.3689   73.5676 C   0  0  2  0  0  0  0  0  0  0  0  0
   25.5885   90.0214   73.1178 C   0  0  2  0  0  0  0  0  0  0  0  0
   23.1797   89.3456   73.2380 C   0  0  2  0  0  0  0  0  0  0  0  0
   25.9141   88.7693   72.8484 N   0  0  0  0  0  0  0  0  0  0  0  0
   21.9257   89.6078   73.6624 O   0  0  0  0  0  0  0  0  0  0  0  0
   26.6279   90.9832   73.2794 N   0  0  0  0  0  0  0  0  0  0  0  0
   27.4442   92.9337   73.6103 O   0  0  0  0  0  0  0  0  0  0  0  0
   23.8058   88.2176   72.7929 N   0  0  0  0  0  0  0  0  0  0  0  0
   24.9848   87.8914   72.6100 C   0  0  0  0  0  0  0  0  0  0  0  0
  1  2  1  0
  2  3  1  0
  3  4  1  0
  3  5  1  0
  1  6  1  0
  4  7  1  0
  6  7  1  0
  5  8  1  0
  9  7  1  1
  9 10  1  0
 10 11  1  0
 12  9  1  6
 12 13  1  0
 12 14  1  0
 13 15  1  1
 14 16  1  1
 11 17  1  0
 13 17  1  0
 11 18  2  0
 14 19  1  0
 15 20  1  0
 19 20  1  0
M  END
$$$$
54
     RDKit          3D

 20 22  0  0  0  0  0  0  0  0999 V2000
   25.3842   88.0564   72.8997 N   0  0  0  0  0  0  0  0  0  0  0  0
   25.1266   89.2695   72.9754 C   0  0  2  0  0  0  0  0  0  0  0  0
   26.1751   90.2621   72.9083 N   0  0  0  0  0  0  0  0  0  0  0  0
   26.2409   91.4274   73.5415 C   0  0  0  0  0  0  0  0  0  0  0  0
   23.9145   89.8014   73.4776 N   0  0  0  0  0  0  0  0  0  0  0  0
   24.9602   91.9819   73.9251 C   0  0  1  0  0  0  0  0  0  0  0  0
   23.8812   91.0657   73.9009 C   0  0  1  0  0  0  0  0  0  0  0  0
   24.7671   93.2410   74.5393 N   0  0  0  0  0  0  0  0  0  0  0  0
   23.6146   93.3555   74.9101 C   0  0  0  0  0  0  0  0  0  0  0  0
   22.6188   91.5054   74.2641 N   0  0  0  0  0  0  0  0  0  0  0  0
   22.5342   92.6481   74.8097 C   0  0  0  0  0  0  0  0  0  0  0  0
   27.3422   92.2347   73.4128 O   0  0  0  0  0  0  0  0  0  0  0  0
   21.3021   93.2010   75.2882 O   0  0  0  0  0  0  0  0  0  0  0  0
   21.4313   90.6499   74.1263 C   0  0  1  0  0  0  0  0  0  0  0  0
   21.5043   89.6387   73.2470 O   0  0  0  0  0  0  0  0  0  0  0  0
   20.5715   92.2555   75.9826 C   0  0  0  0  0  0  0  0  0  0  0  0
   19.6382   92.5944   76.6872 O   0  0  0  0  0  0  0  0  0  0  0  0
   20.9773   90.5492   75.5882 C   0  0  2  0  0  0  0  0  0  0  0  0
   20.1623   89.3353   72.9182 C   0  0  0  0  0  0  0  0  0  0  0  0
   21.9527   90.0805   76.5463 C   0  0  0  0  0  0  0  0  0  0  0  0
  2  1  1  1
  2  3  1  0
  3  4  1  0
  2  5  1  0
  4  6  1  0
  7  5  1  6
  6  7  1  0
  6  8  1  1
  8  9  1  0
  7 10  1  0
  9 11  1  0
 10 11  1  0
  4 12  2  0
 11 13  1  0
 10 14  1  0
 14 15  1  1
 13 16  1  0
 16 17  2  0
 14 18  1  0
 16 18  1  0
 15 19  1  0
 18 20  1  1
M  END
$$$$
55
     RDKit          3D

 20 21  0  0  0  0  0  0  0  0999 V2000
   21.0692   93.5042   75.4357 C   0  0  0  0  0  0  0  0  0  0  0  0
   20.7887   92.6296   76.4947 C   0  0  0  0  0  0  0  0  0  0  0  0
   21.5626   91.4080   76.6344 C   0  0  0  0  0  0  0  0  0  0  0  0
   22.5698   91.1743   75.6480 C   0  0  0  0  0  0  0  0  0  0  0  0
   21.3121   90.4214   77.7342 C   0  0  0  0  0  0  0  0  0  0  0  0
   22.1618   93.1514   74.6355 C   0  0  0  0  0  0  0  0  0  0  0  0
   22.8640   91.9933   74.7012 C   0  0  0  0  0  0  0  0  0  0  0  0
   19.9796   89.9268   77.7048 C   0  0  0  0  0  0  0  0  0  0  0  0
   23.9865   91.8372   73.6459 C   0  0  1  0  0  0  0  0  0  0  0  0
   24.9995   92.6379   73.5868 N   0  0  0  0  0  0  0  0  0  0  0  0
   26.3008   92.3426   73.6956 C   0  0  0  0  0  0  0  0  0  0  0  0
   24.3541   90.3689   73.5676 C   0  0  2  0  0  0  0  0  0  0  0  0
   25.5885   90.0214   73.1178 C   0  0  1  0  0  0  0  0  0  0  0  0
   23.1764   89.2766   73.0598 C   0  0  0  0  0  0  0  0  0  0  0  0
   19.6907   88.9129   76.8322 C   0  0  0  0  0  0  0  0  0  0  0  0
   23.5624   88.1537   73.2364 O   0  0  0  0  0  0  0  0  0  0  0  0
   27.2809   93.2060   73.7601 O   0  0  0  0  0  0  0  0  0  0  0  0
   26.6905   90.9986   73.1675 N   0  0  0  0  0  0  0  0  0  0  0  0
   22.2403   89.8364   72.4038 N   0  0  0  0  0  0  0  0  0  0  0  0
   26.0317   88.7245   73.4721 O   0  0  0  0  0  0  0  0  0  0  0  0
  1  2  1  0
  2  3  1  0
  3  4  1  0
  3  5  1  0
  1  6  1  0
  4  7  1  0
  6  7  1  0
  5  8  1  0
  9  7  1  1
  9 10  1  0
 10 11  1  0
  9 12  1  0
 12 13  1  0
 12 14  1  6
  8 15  1  0
 14 16  2  0
 11 17  2  0
 11 18  1  0
 13 18  1  0
 14 19  1  0
 13 20  1  1
M  END
$$$$
56
     RDKit          3D

 21 23  0  0  0  0  0  0  0  0999 V2000
   18.9553   88.9261   72.5594 O   0  0  0  0  0  0  0  0  0  0  0  0
   19.4859   89.3782   73.6161 C   0  0  0  0  0  0  0  0  0  0  0  0
   20.7633   89.7964   73.6172 N   0  0  0  0  0  0  0  0  0  0  0  0
   21.2683   90.3634   74.8710 C   0  0  2  0  0  0  0  0  0  0  0  0
   18.7850   89.5823   74.7441 C   0  0  2  0  0  0  0  0  0  0  0  0
   22.6296   90.8237   74.9058 C   0  0  1  0  0  0  0  0  0  0  0  0
   20.7294   90.2295   76.0338 N   0  0  0  0  0  0  0  0  0  0  0  0
   19.3335   89.8174   76.0141 C   0  0  1  0  0  0  0  0  0  0  0  0
   23.7071   90.2517   74.3155 C   0  0  0  0  0  0  0  0  0  0  0  0
   18.5922   89.8140   77.2189 C   0  0  0  0  0  0  0  0  0  0  0  0
   17.3220   89.1112   74.7096 C   0  0  0  0  0  0  0  0  0  0  0  0
   24.7903   91.1120   73.8617 C   0  0  1  0  0  0  0  0  0  0  0  0
   22.6748   92.1055   75.5809 C   0  0  0  0  0  0  0  0  0  0  0  0
   23.9704   92.8515   75.3747 C   0  0  0  0  0  0  0  0  0  0  0  0
   17.2498   89.4878   77.1461 C   0  0  0  0  0  0  0  0  0  0  0  0
   16.6465   89.2702   75.9271 C   0  0  0  0  0  0  0  0  0  0  0  0
   24.9321   92.3450   74.5591 C   0  0  2  0  0  0  0  0  0  0  0  0
   26.0924   90.4818   73.0491 C   0  0  0  0  0  0  0  0  0  0  0  0
   26.9884   91.3574   72.7806 O   0  0  0  0  0  0  0  0  0  0  0  0
   25.9467   89.2460   72.8299 O   0  0  0  0  0  0  0  0  0  0  0  0
   26.1341   93.0957   74.2509 O   0  0  0  0  0  0  0  0  0  0  0  0
  1  2  2  0
  2  3  1  0
  4  3  1  1
  2  5  1  0
  4  6  1  0
  4  7  1  0
  5  8  1  0
  7  8  1  0
  6  9  1  6
  8 10  1  6
  5 11  1  1
  9 12  1  0
  6 13  1  0
 13 14  1  0
 10 15  1  0
 11 16  1  0
 15 16  1  0
 12 17  1  0
 14 17  1  0
 12 18  1  1
 18 19  1  0
 18 20  2  0
 17 21  1  6
M  END
$$$$
57
     RDKit          3D

 21 23  0  0  0  0  0  0  0  0999 V2000
   19.1816   89.6083   72.0600 C   0  0  0  0  0  0  0  0  0  0  0  0
   20.0343   89.8874   73.1185 C   0  0  2  0  0  0  0  0  0  0  0  0
   19.4305   89.7913   70.9391 O   0  0  0  0  0  0  0  0  0  0  0  0
   17.8466   89.3605   72.4228 O   0  0  0  0  0  0  0  0  0  0  0  0
   21.3715   90.0741   72.9816 N   0  0  0  0  0  0  0  0  0  0  0  0
   19.4936   89.8981   74.3937 C   0  0  0  0  0  0  0  0  0  0  0  0
   22.2550   90.3208   73.8331 C   0  0  1  0  0  0  0  0  0  0  0  0
   21.8420   90.3259   75.1656 C   0  0  1  0  0  0  0  0  0  0  0  0
   20.4311   90.0980   75.4512 C   0  0  1  0  0  0  0  0  0  0  0  0
   19.9847   90.2349   76.8307 C   0  0  0  0  0  0  0  0  0  0  0  0
   20.8474   90.7178   77.8402 C   0  0  0  0  0  0  0  0  0  0  0  0
   22.8655   90.5105   76.2808 C   0  0  0  0  0  0  0  0  0  0  0  0
   23.7137   90.4840   73.3104 C   0  0  0  0  0  0  0  0  0  0  0  0
   24.2581   91.7220   73.3275 C   0  0  0  0  0  0  0  0  0  0  0  0
   25.6675   91.7522   73.0656 C   0  0  0  0  0  0  0  0  0  0  0  0
   24.3867   89.3356   72.8005 C   0  0  0  0  0  0  0  0  0  0  0  0
   22.3103   90.7856   77.5505 C   0  0  0  0  0  0  0  0  0  0  0  0
   26.4094   90.6764   72.7402 C   0  0  0  0  0  0  0  0  0  0  0  0
   25.7901   89.4220   72.7112 C   0  0  0  0  0  0  0  0  0  0  0  0
   27.7688   90.9184   72.9566 O   0  0  0  0  0  0  0  0  0  0  0  0
   28.2403   91.7537   74.0258 C   0  0  0  0  0  0  0  0  0  0  0  0
  2  1  1  1
  1  3  2  0
  1  4  1  0
  2  5  1  0
  2  6  1  0
  5  7  1  0
  7  8  1  0
  9  6  1  6
  8  9  1  0
  9 10  1  0
 10 11  1  0
  8 12  1  1
  7 13  1  1
 13 14  1  0
 14 15  1  0
 13 16  1  0
 11 17  1  0
 12 17  1  0
 15 18  1  0
 16 19  1  0
 18 19  1  0
 18 20  1  0
 20 21  1  0
M  END
$$$$
58
     RDKit          3D

 21 24  0  0  0  0  0  0  0  0999 V2000
   21.0692   93.5042   75.4357 C   0  0  0  0  0  0  0  0  0  0  0  0
   22.1435   92.9808   74.8159 C   0  0  2  0  0  0  0  0  0  0  0  0
   23.0157   93.6089   74.0841 N   0  0  0  0  0  0  0  0  0  0  0  0
   24.0525   93.0460   73.5618 N   0  0  0  0  0  0  0  0  0  0  0  0
   24.2593   91.8448   73.8533 C   0  0  1  0  0  0  0  0  0  0  0  0
   22.4351   91.4872   74.7453 C   0  0  2  0  0  0  0  0  0  0  0  0
   21.3193   90.7464   75.6461 C   0  0  2  0  0  0  0  0  0  0  0  0
   23.4130   90.8740   74.3191 C   0  0  0  0  0  0  0  0  0  0  0  0
   25.6902   91.2697   73.2198 C   0  0  1  0  0  0  0  0  0  0  0  0
   23.5232   89.3905   74.3767 C   0  0  0  0  0  0  0  0  0  0  0  0
   20.3914   91.2267   76.3147 C   0  0  0  0  0  0  0  0  0  0  0  0
   26.7059   92.1237   73.2042 C   0  0  0  0  0  0  0  0  0  0  0  0
   21.3790   89.2988   76.1279 C   0  0  0  0  0  0  0  0  0  0  0  0
   27.6504   91.8772   74.2599 C   0  0  0  0  0  0  0  0  0  0  0  0
   20.1846   92.7758   76.1418 C   0  0  0  0  0  0  0  0  0  0  0  0
   19.6935   90.4170   77.1149 C   0  0  0  0  0  0  0  0  0  0  0  0
   26.0386   90.0601   73.9291 O   0  0  0  0  0  0  0  0  0  0  0  0
   20.3510   89.1142   76.7990 C   0  0  0  0  0  0  0  0  0  0  0  0
   28.7017   92.8481   74.3381 O   0  0  0  0  0  0  0  0  0  0  0  0
   24.2455   88.8973   73.1830 C   0  0  0  0  0  0  0  0  0  0  0  0
   25.8316   88.9142   73.3319 C   0  0  0  0  0  0  0  0  0  0  0  0
  2  1  1  6
  2  3  1  0
  3  4  1  0
  5  4  1  6
  2  6  1  0
  6  7  1  0
  5  8  1  0
  6  8  1  1
  5  9  1  0
  8 10  1  0
  7 11  1  0
  9 12  1  1
  7 13  1  1
 12 14  1  0
  1 15  1  0
 11 15  1  0
 11 16  1  0
  9 17  1  0
 13 18  1  0
 16 18  1  0
 14 19  1  0
 10 20  1  0
 17 21  1  0
 20 21  1  0
M  END
$$$$
59
     RDKit          3D

 21 24  0  0  0  0  0  0  0  0999 V2000
   25.0507   89.7858   72.6233 C   0  0  0  0  0  0  0  0  0  0  0  0
   23.9819   89.8747   73.2938 N   0  0  0  0  0  0  0  0  0  0  0  0
   23.0210   88.9349   73.4104 C   0  0  0  0  0  0  0  0  0  0  0  0
   24.1702   91.0517   74.2268 C   0  0  1  0  0  0  0  0  0  0  0  0
   25.3770   88.5477   72.0443 O   0  0  0  0  0  0  0  0  0  0  0  0
   25.9996   90.8266   72.4714 N   0  0  0  0  0  0  0  0  0  0  0  0
   27.2453   90.6902   72.1245 C   0  0  0  0  0  0  0  0  0  0  0  0
   21.8643   89.7145   73.1318 O   0  0  0  0  0  0  0  0  0  0  0  0
   21.6255   90.8075   73.8697 C   0  0  2  0  0  0  0  0  0  0  0  0
   25.6341   91.5969   73.8538 C   0  0  0  0  0  0  0  0  0  0  0  0
   22.9700   91.9435   73.9192 C   0  0  1  0  0  0  0  0  0  0  0  0
   21.2782   90.5914   75.3289 C   0  0  1  0  0  0  0  0  0  0  0  0
   22.7770   93.1969   74.0395 C   0  0  0  0  0  0  0  0  0  0  0  0
   20.6688   91.5056   76.0612 O   0  0  0  0  0  0  0  0  0  0  0  0
   20.3364   89.3849   75.4311 C   0  0  0  0  0  0  0  0  0  0  0  0
   20.5249   91.3973   77.5117 C   0  0  0  0  0  0  0  0  0  0  0  0
   19.9427   89.0994   76.8831 C   0  0  0  0  0  0  0  0  0  0  0  0
   19.5371   90.2903   77.6796 C   0  0  0  0  0  0  0  0  0  0  0  0
   26.2943   92.5849   74.3547 C   0  0  0  0  0  0  0  0  0  0  0  0
   28.0842   91.7132   73.0924 C   0  0  0  0  0  0  0  0  0  0  0  0
   27.6947   92.6331   73.9679 C   0  0  0  0  0  0  0  0  0  0  0  0
  1  2  1  0
  2  3  1  0
  2  4  1  0
  1  5  2  0
  1  6  1  0
  6  7  1  0
  3  8  1  0
  9  8  1  1
  4 10  1  6
  6 10  1  0
  4 11  1  0
  9 11  1  0
  9 12  1  0
 11 13  1  1
 12 14  1  0
 12 15  1  6
 14 16  1  0
 15 17  1  0
 16 18  1  0
 17 18  1  0
 10 19  2  0
  7 20  1  0
 19 21  1  0
 20 21  2  0
M  END
$$$$
6
     RDKit          3D

 15 17  0  0  0  0  0  0  0  0999 V2000
   25.3842   88.0564   72.8997 N   0  0  0  0  0  0  0  0  0  0  0  0
   25.1266   89.2695   72.9754 C   0  0  2  0  0  0  0  0  0  0  0  0
   26.1751   90.2621   72.9083 N   0  0  0  0  0  0  0  0  0  0  0  0
   26.2409   91.4274   73.5415 C   0  0  0  0  0  0  0  0  0  0  0  0
   23.9145   89.8014   73.4776 N   0  0  0  0  0  0  0  0  0  0  0  0
   24.9602   91.9819   73.9251 C   0  0  1  0  0  0  0  0  0  0  0  0
   23.8812   91.0657   73.9009 C   0  0  1  0  0  0  0  0  0  0  0  0
   27.3410   92.2717   73.4838 N   0  0  0  0  0  0  0  0  0  0  0  0
   24.9077   93.3325   74.3674 N   0  0  0  0  0  0  0  0  0  0  0  0
   23.5133   93.5096   74.7311 C   0  0  0  0  0  0  0  0  0  0  0  0
   22.6149   92.7042   74.6293 N   0  0  0  0  0  0  0  0  0  0  0  0
   22.7285   91.6098   74.2054 C   0  0  2  0  0  0  0  0  0  0  0  0
   21.6512   90.5396   74.2660 N   0  0  0  0  0  0  0  0  0  0  0  0
   22.1584   89.4309   73.6819 C   0  0  0  0  0  0  0  0  0  0  0  0
   23.0313   88.9218   73.2853 N   0  0  0  0  0  0  0  0  0  0  0  0
  2  1  1  1
  2  3  1  0
  3  4  1  0
  2  5  1  0
  4  6  1  0
  7  5  1  6
  6  7  1  0
  4  8  2  0
  6  9  1  1
  9 10  1  0
 10 11  1  0
  7 12  1  0
 12 11  1  1
 12 13  1  0
 13 14  1  0
  5 15  1  0
 14 15  1  0
M  END
$$$$
60
     RDKit          3D

 21 24  0  0  0  0  0  0  0  0999 V2000
   25.0507   89.7858   72.6233 C   0  0  0  0  0  0  0  0  0  0  0  0
   23.9819   89.8747   73.2938 N   0  0  0  0  0  0  0  0  0  0  0  0
   23.0210   88.9349   73.4104 C   0  0  0  0  0  0  0  0  0  0  0  0
   24.1702   91.0517   74.2268 C   0  0  1  0  0  0  0  0  0  0  0  0
   25.3770   88.5477   72.0443 O   0  0  0  0  0  0  0  0  0  0  0  0
   25.9996   90.8266   72.4714 N   0  0  0  0  0  0  0  0  0  0  0  0
   27.2453   90.6902   72.1245 C   0  0  0  0  0  0  0  0  0  0  0  0
   21.8643   89.7145   73.1318 O   0  0  0  0  0  0  0  0  0  0  0  0
   21.6255   90.8075   73.8697 C   0  0  2  0  0  0  0  0  0  0  0  0
   25.6341   91.5969   73.8538 C   0  0  0  0  0  0  0  0  0  0  0  0
   22.9700   91.9435   73.9192 C   0  0  1  0  0  0  0  0  0  0  0  0
   21.2782   90.5914   75.3289 C   0  0  0  0  0  0  0  0  0  0  0  0
   22.7770   93.1969   74.0395 C   0  0  0  0  0  0  0  0  0  0  0  0
   26.3187   92.5910   74.3364 C   0  0  0  0  0  0  0  0  0  0  0  0
   19.9755   90.3671   75.6136 C   0  0  0  0  0  0  0  0  0  0  0  0
   27.8011   92.6984   73.9501 C   0  0  0  0  0  0  0  0  0  0  0  0
   19.5173   90.0819   76.9663 C   0  0  0  0  0  0  0  0  0  0  0  0
   28.2532   91.7368   72.9820 C   0  0  0  0  0  0  0  0  0  0  0  0
   22.1198   90.5267   76.4900 C   0  0  0  0  0  0  0  0  0  0  0  0
   21.6765   90.2605   77.7959 C   0  0  0  0  0  0  0  0  0  0  0  0
   20.3278   90.1683   78.0345 C   0  0  0  0  0  0  0  0  0  0  0  0
  1  2  1  0
  2  3  1  0
  2  4  1  0
  1  5  2  0
  1  6  1  0
  6  7  1  0
  3  8  1  0
  8  9  1  0
  4 10  1  6
  6 10  1  0
  4 11  1  0
  9 11  1  0
  9 12  1  1
 11 13  1  1
 10 14  2  0
 12 15  1  0
 14 16  1  0
 15 17  1  0
  7 18  1  0
 16 18  1  0
 12 19  1  0
 19 20  1  0
 17 21  1  0
 20 21  1  0
M  END
$$$$
61
     RDKit          3D

 21 23  0  0  0  0  0  0  0  0999 V2000
   25.0507   89.7858   72.6233 C   0  0  0  0  0  0  0  0  0  0  0  0
   23.9819   89.8747   73.2938 N   0  0  0  0  0  0  0  0  0  0  0  0
   23.0210   88.9349   73.4104 C   0  0  0  0  0  0  0  0  0  0  0  0
   24.1702   91.0517   74.2268 C   0  0  1  0  0  0  0  0  0  0  0  0
   25.3770   88.5477   72.0443 O   0  0  0  0  0  0  0  0  0  0  0  0
   25.9996   90.8266   72.4714 N   0  0  0  0  0  0  0  0  0  0  0  0
   27.2453   90.6902   72.1245 C   0  0  0  0  0  0  0  0  0  0  0  0
   21.8643   89.7145   73.1318 O   0  0  0  0  0  0  0  0  0  0  0  0
   21.6255   90.8075   73.8697 C   0  0  2  0  0  0  0  0  0  0  0  0
   25.6341   91.5969   73.8538 C   0  0  0  0  0  0  0  0  0  0  0  0
   22.9700   91.9435   73.9192 C   0  0  1  0  0  0  0  0  0  0  0  0
   21.2782   90.5914   75.3289 C   0  0  0  0  0  0  0  0  0  0  0  0
   22.7770   93.1969   74.0395 C   0  0  0  0  0  0  0  0  0  0  0  0
   26.3187   92.5910   74.3364 C   0  0  0  0  0  0  0  0  0  0  0  0
   19.9755   90.3671   75.6136 C   0  0  0  0  0  0  0  0  0  0  0  0
   27.8011   92.6984   73.9501 C   0  0  0  0  0  0  0  0  0  0  0  0
   19.5173   90.0819   76.9663 C   0  0  0  0  0  0  0  0  0  0  0  0
   28.5835   93.3535   74.5925 O   0  0  0  0  0  0  0  0  0  0  0  0
   18.2467   89.6218   77.1880 C   0  0  0  0  0  0  0  0  0  0  0  0
   19.6277   91.2654   77.9218 C   0  0  0  0  0  0  0  0  0  0  0  0
   28.1983   91.7127   72.9238 C   0  0  0  0  0  0  0  0  0  0  0  0
  1  2  1  0
  2  3  1  0
  2  4  1  0
  1  5  2  0
  1  6  1  0
  6  7  1  0
  3  8  1  0
  8  9  1  0
  4 10  1  6
  6 10  1  0
  4 11  1  0
  9 11  1  0
  9 12  1  1
 11 13  1  1
 10 14  2  0
 12 15  1  0
 14 16  1  0
 15 17  1  0
 16 18  2  0
 17 19  1  0
 17 20  1  0
  7 21  1  0
 16 21  1  0
M  END
$$$$
62
     RDKit          3D

 21 24  0  0  0  0  0  0  0  0999 V2000
   25.0507   89.7858   72.6233 C   0  0  0  0  0  0  0  0  0  0  0  0
   23.9819   89.8747   73.2938 N   0  0  0  0  0  0  0  0  0  0  0  0
   23.0210   88.9349   73.4104 C   0  0  0  0  0  0  0  0  0  0  0  0
   24.1702   91.0517   74.2268 C   0  0  1  0  0  0  0  0  0  0  0  0
   25.3770   88.5477   72.0443 O   0  0  0  0  0  0  0  0  0  0  0  0
   25.9996   90.8266   72.4714 N   0  0  0  0  0  0  0  0  0  0  0  0
   27.2453   90.6902   72.1245 C   0  0  0  0  0  0  0  0  0  0  0  0
   21.8643   89.7145   73.1318 O   0  0  0  0  0  0  0  0  0  0  0  0
   21.6255   90.8075   73.8697 C   0  0  2  0  0  0  0  0  0  0  0  0
   25.6341   91.5969   73.8538 C   0  0  0  0  0  0  0  0  0  0  0  0
   22.9700   91.9435   73.9192 C   0  0  1  0  0  0  0  0  0  0  0  0
   21.2782   90.5914   75.3289 C   0  0  1  0  0  0  0  0  0  0  0  0
   22.7770   93.1969   74.0395 C   0  0  0  0  0  0  0  0  0  0  0  0
   20.6688   91.5056   76.0612 O   0  0  0  0  0  0  0  0  0  0  0  0
   20.3364   89.3849   75.4311 C   0  0  0  0  0  0  0  0  0  0  0  0
   20.5249   91.3973   77.5117 C   0  0  0  0  0  0  0  0  0  0  0  0
   19.9427   89.0994   76.8831 C   0  0  0  0  0  0  0  0  0  0  0  0
   19.5371   90.2903   77.6796 C   0  0  0  0  0  0  0  0  0  0  0  0
   26.2943   92.5849   74.3547 C   0  0  0  0  0  0  0  0  0  0  0  0
   28.0842   91.7132   73.0924 C   0  0  0  0  0  0  0  0  0  0  0  0
   27.6579   92.6976   73.9234 N   0  0  0  0  0  0  0  0  0  0  0  0
  1  2  1  0
  2  3  1  0
  2  4  1  0
  1  5  2  0
  1  6  1  0
  6  7  1  0
  3  8  1  0
  9  8  1  1
  4 10  1  6
  6 10  1  0
  4 11  1  0
  9 11  1  0
  9 12  1  0
 11 13  1  1
 12 14  1  0
 12 15  1  6
 14 16  1  0
 15 17  1  0
 16 18  1  0
 17 18  1  0
 10 19  2  0
  7 20  1  0
 19 21  1  0
 20 21  2  0
M  END
$$$$
63
     RDKit          3D

 21 22  0  0  0  0  0  0  0  0999 V2000
   21.2272   90.1770   77.8729 C   0  0  0  0  0  0  0  0  0  0  0  0
   21.9243   89.9577   76.8172 C   0  0  0  0  0  0  0  0  0  0  0  0
   20.1857   90.8062   77.8890 C   0  0  0  0  0  0  0  0  0  0  0  0
   19.6732   91.3568   76.6662 C   0  0  1  0  0  0  0  0  0  0  0  0
   18.4570   92.2360   76.6398 O   0  0  0  0  0  0  0  0  0  0  0  0
   17.2100   91.7109   76.3149 C   0  0  0  0  0  0  0  0  0  0  0  0
   20.4660   91.1615   75.5506 C   0  0  0  0  0  0  0  0  0  0  0  0
   21.4946   90.5346   75.6094 C   0  0  0  0  0  0  0  0  0  0  0  0
   22.5647   90.1807   74.3180 C   0  0  2  0  0  0  0  0  0  0  0  0
   23.9346   90.1040   74.5782 O   0  0  0  0  0  0  0  0  0  0  0  0
   24.7891   89.7638   73.5419 C   0  0  1  0  0  0  0  0  0  0  0  0
   25.6147   90.9244   73.2618 C   0  0  2  0  0  0  0  0  0  0  0  0
   25.5027   88.5059   73.7185 C   0  0  0  0  0  0  0  0  0  0  0  0
   25.1787   87.5243   72.9137 O   0  0  0  0  0  0  0  0  0  0  0  0
   22.1492   91.3418   73.5693 O   0  0  0  0  0  0  0  0  0  0  0  0
   26.9901   90.7281   73.5159 O   0  0  0  0  0  0  0  0  0  0  0  0
   25.2822   92.0447   74.1723 C   0  0  2  0  0  0  0  0  0  0  0  0
   22.4263   92.6069   74.0813 C   0  0  0  0  0  0  0  0  0  0  0  0
   23.8955   92.9602   73.9911 C   0  0  0  0  0  0  0  0  0  0  0  0
   26.3131   92.6369   74.7797 O   0  0  0  0  0  0  0  0  0  0  0  0
   21.7835   89.0131   73.8096 O   0  0  0  0  0  0  0  0  0  0  0  0
  1  2  1  0
  1  3  1  0
  3  4  1  0
  4  5  1  1
  5  6  1  0
  4  7  1  0
  2  8  1  0
  7  8  1  0
  8  9  1  0
  9 10  1  0
 10 11  1  0
 11 12  1  0
 11 13  1  1
 13 14  1  0
  9 15  1  0
 12 16  1  1
 12 17  1  0
 15 18  1  0
 17 19  1  0
 18 19  1  0
 17 20  1  6
  9 21  1  6
M  END
$$$$
64
     RDKit          3D

 21 22  0  0  0  0  0  0  0  0999 V2000
   21.2272   90.1770   77.8729 C   0  0  0  0  0  0  0  0  0  0  0  0
   21.9243   89.9577   76.8172 C   0  0  0  0  0  0  0  0  0  0  0  0
   20.1857   90.8062   77.8890 C   0  0  0  0  0  0  0  0  0  0  0  0
   19.6732   91.3568   76.6662 C   0  0  1  0  0  0  0  0  0  0  0  0
   18.4570   92.2360   76.6398 O   0  0  0  0  0  0  0  0  0  0  0  0
   17.2100   91.7109   76.3149 C   0  0  0  0  0  0  0  0  0  0  0  0
   20.4660   91.1615   75.5506 C   0  0  0  0  0  0  0  0  0  0  0  0
   21.4946   90.5346   75.6094 C   0  0  2  0  0  0  0  0  0  0  0  0
   22.3580   90.1946   74.3611 C   0  0  0  0  0  0  0  0  0  0  0  0
   23.7889   90.2118   74.5098 O   0  0  0  0  0  0  0  0  0  0  0  0
   24.6765   90.6978   73.5105 C   0  0  1  0  0  0  0  0  0  0  0  0
   25.0951   92.0419   73.7331 C   0  0  1  0  0  0  0  0  0  0  0  0
   24.2487   92.9365   74.2946 N   0  0  0  0  0  0  0  0  0  0  0  0
   26.4537   92.3292   74.1086 C   0  0  1  0  0  0  0  0  0  0  0  0
   27.4398   91.4099   73.5011 N   0  0  0  0  0  0  0  0  0  0  0  0
   22.7986   93.2465   74.3467 C   0  0  0  0  0  0  0  0  0  0  0  0
   21.8685   90.0657   73.1123 O   0  0  0  0  0  0  0  0  0  0  0  0
   26.9145   90.1586   72.9944 C   0  0  0  0  0  0  0  0  0  0  0  0
   25.5970   89.7625   73.0148 C   0  0  0  0  0  0  0  0  0  0  0  0
   27.0109   93.4811   74.5020 O   0  0  0  0  0  0  0  0  0  0  0  0
   25.2544   88.5150   72.5113 C   0  0  0  0  0  0  0  0  0  0  0  0
  1  2  1  0
  1  3  1  0
  3  4  1  0
  4  5  1  1
  5  6  1  0
  4  7  1  0
  2  8  1  0
  7  8  1  0
  8  9  1  6
  9 10  1  0
 11 10  1  1
 11 12  1  0
 12 13  1  1
 12 14  1  0
 14 15  1  0
 13 16  1  0
  9 17  2  0
 15 18  1  0
 11 19  1  0
 18 19  1  0
 14 20  1  6
 19 21  1  0
M  END
$$$$
65
     RDKit          3D

 21 23  0  0  0  0  0  0  0  0999 V2000
   18.3705   88.4740   74.3376 C   0  0  0  0  0  0  0  0  0  0  0  0
   19.1682   88.6376   75.4007 C   0  0  1  0  0  0  0  0  0  0  0  0
   18.7525   88.3936   76.6533 O   0  0  0  0  0  0  0  0  0  0  0  0
   20.5830   88.9868   75.2480 C   0  0  2  0  0  0  0  0  0  0  0  0
   17.0695   88.2236   74.4382 O   0  0  0  0  0  0  0  0  0  0  0  0
   19.7747   89.0522   77.4622 C   0  0  0  0  0  0  0  0  0  0  0  0
   20.9585   89.3443   76.6552 C   0  0  2  0  0  0  0  0  0  0  0  0
   21.2346   89.4240   74.1315 C   0  0  0  0  0  0  0  0  0  0  0  0
   18.9353   88.4604   72.9980 O   0  0  0  0  0  0  0  0  0  0  0  0
   21.9501   90.2659   76.8795 C   0  0  0  0  0  0  0  0  0  0  0  0
   22.5498   90.0668   74.4385 C   0  0  2  0  0  0  0  0  0  0  0  0
   22.8509   90.5782   75.7816 C   0  0  0  0  0  0  0  0  0  0  0  0
   23.3220   90.7097   73.3418 C   0  0  0  0  0  0  0  0  0  0  0  0
   24.5436   90.0641   73.1865 N   0  0  0  0  0  0  0  0  0  0  0  0
   24.7429   88.7809   72.9720 C   0  0  0  0  0  0  0  0  0  0  0  0
   25.5065   91.0825   72.7025 C   0  0  0  0  0  0  0  0  0  0  0  0
   26.0765   88.5296   73.2684 N   0  0  0  0  0  0  0  0  0  0  0  0
   26.7422   90.6136   72.8833 N   0  0  0  0  0  0  0  0  0  0  0  0
   22.8305   91.3421   72.4692 O   0  0  0  0  0  0  0  0  0  0  0  0
   26.9936   89.4369   73.2199 C   0  0  0  0  0  0  0  0  0  0  0  0
   28.3212   88.9428   73.4929 N   0  0  0  0  0  0  0  0  0  0  0  0
  2  1  1  6
  2  3  1  0
  2  4  1  0
  1  5  1  0
  3  6  1  0
  4  7  1  0
  7  6  1  1
  4  8  1  6
  1  9  2  0
  7 10  1  0
  8 11  1  0
 10 12  1  0
 11 12  1  0
 11 13  1  6
 13 14  1  0
 14 15  1  0
 14 16  1  0
 15 17  1  0
 16 18  1  0
 13 19  2  0
 17 20  1  0
 18 20  1  0
 20 21  1  0
M  END
$$$$
66
     RDKit          3D

 21 22  0  0  0  0  0  0  0  0999 V2000
   19.1273   89.0295   71.9956 O   0  0  0  0  0  0  0  0  0  0  0  0
   18.8170   89.5461   73.0152 C   0  0  0  0  0  0  0  0  0  0  0  0
   19.8833   89.7928   73.8659 C   0  0  1  0  0  0  0  0  0  0  0  0
   20.7124   90.8526   73.7512 N   0  0  0  0  0  0  0  0  0  0  0  0
   21.9972   91.0045   74.2696 C   0  0  1  0  0  0  0  0  0  0  0  0
   19.6615   89.8180   75.3679 C   0  0  2  0  0  0  0  0  0  0  0  0
   17.6983   89.5351   73.6828 O   0  0  0  0  0  0  0  0  0  0  0  0
   20.9010   89.8952   76.2637 C   0  0  0  0  0  0  0  0  0  0  0  0
   18.7730   88.6216   75.9876 C   0  0  0  0  0  0  0  0  0  0  0  0
   22.8236   92.0277   73.7628 C   0  0  2  0  0  0  0  0  0  0  0  0
   24.2169   91.6267   73.5942 C   0  0  0  0  0  0  0  0  0  0  0  0
   24.5203   90.2919   73.7664 C   0  0  0  0  0  0  0  0  0  0  0  0
   25.9722   89.9134   73.5777 N   0  0  0  0  0  0  0  0  0  0  0  0
   23.6552   89.1438   73.6578 O   0  0  0  0  0  0  0  0  0  0  0  0
   22.4312   93.3003   73.8735 O   0  0  0  0  0  0  0  0  0  0  0  0
   21.7551   90.6681   75.6577 C   0  0  0  0  0  0  0  0  0  0  0  0
   26.7703   90.5646   73.2640 N   0  0  0  0  0  0  0  0  0  0  0  0
   25.2801   92.4394   73.2559 N   0  0  0  0  0  0  0  0  0  0  0  0
   26.5167   91.9605   73.1284 C   0  0  0  0  0  0  0  0  0  0  0  0
   27.6452   92.6991   73.2553 O   0  0  0  0  0  0  0  0  0  0  0  0
   26.1245   88.3877   73.7230 C   0  0  0  0  0  0  0  0  0  0  0  0
  1  2  2  0
  3  2  1  6
  3  4  1  0
  4  5  1  0
  3  6  1  0
  2  7  1  0
  6  8  1  0
  6  9  1  1
  5 10  1  0
 10 11  1  0
 11 12  1  0
 12 13  1  0
 12 14  2  0
 10 15  1  1
  5 16  1  1
  8 16  1  0
 13 17  1  0
 11 18  1  0
 17 19  1  0
 18 19  1  0
 19 20  2  0
 13 21  1  0
M  END
$$$$
67
     RDKit          3D

 21 24  0  0  0  0  0  0  0  0999 V2000
   25.0507   89.7858   72.6233 C   0  0  0  0  0  0  0  0  0  0  0  0
   23.9819   89.8747   73.2938 N   0  0  0  0  0  0  0  0  0  0  0  0
   23.0210   88.9349   73.4104 C   0  0  0  0  0  0  0  0  0  0  0  0
   24.1702   91.0517   74.2268 C   0  0  1  0  0  0  0  0  0  0  0  0
   25.3770   88.5477   72.0443 O   0  0  0  0  0  0  0  0  0  0  0  0
   25.9996   90.8266   72.4714 N   0  0  0  0  0  0  0  0  0  0  0  0
   27.2453   90.6902   72.1245 C   0  0  0  0  0  0  0  0  0  0  0  0
   21.8643   89.7145   73.1318 O   0  0  0  0  0  0  0  0  0  0  0  0
   21.6255   90.8075   73.8697 C   0  0  2  0  0  0  0  0  0  0  0  0
   25.6341   91.5969   73.8538 C   0  0  0  0  0  0  0  0  0  0  0  0
   22.9700   91.9435   73.9192 C   0  0  1  0  0  0  0  0  0  0  0  0
   21.2782   90.5914   75.3289 C   0  0  1  0  0  0  0  0  0  0  0  0
   22.7770   93.1969   74.0395 C   0  0  0  0  0  0  0  0  0  0  0  0
   20.6688   91.5056   76.0612 O   0  0  0  0  0  0  0  0  0  0  0  0
   20.3364   89.3849   75.4311 C   0  0  0  0  0  0  0  0  0  0  0  0
   20.5249   91.3973   77.5117 C   0  0  0  0  0  0  0  0  0  0  0  0
   19.6774   90.2057   77.7394 C   0  0  0  0  0  0  0  0  0  0  0  0
   20.0214   89.0989   76.9209 C   0  0  0  0  0  0  0  0  0  0  0  0
   26.2926   92.5855   74.3543 C   0  0  0  0  0  0  0  0  0  0  0  0
   27.7667   92.7752   73.9333 C   0  0  0  0  0  0  0  0  0  0  0  0
   28.1232   91.8392   72.8550 C   0  0  0  0  0  0  0  0  0  0  0  0
  1  2  1  0
  2  3  1  0
  2  4  1  0
  1  5  2  0
  1  6  1  0
  6  7  1  0
  3  8  1  0
  9  8  1  1
  4 10  1  6
  6 10  1  0
  4 11  1  0
  9 11  1  0
  9 12  1  0
 11 13  1  1
 12 14  1  0
 12 15  1  6
 14 16  1  0
 16 17  1  0
 15 18  1  0
 17 18  1  0
 10 19  2  0
 19 20  1  0
  7 21  1  0
 20 21  1  0
M  END
$$$$
68
     RDKit          3D

 21 22  0  0  0  0  0  0  0  0999 V2000
   21.0692   93.5042   75.4357 C   0  0  0  0  0  0  0  0  0  0  0  0
   20.7887   92.6296   76.4947 C   0  0  0  0  0  0  0  0  0  0  0  0
   21.5626   91.4080   76.6344 C   0  0  0  0  0  0  0  0  0  0  0  0
   22.5698   91.1743   75.6480 C   0  0  0  0  0  0  0  0  0  0  0  0
   21.3121   90.4214   77.7342 C   0  0  0  0  0  0  0  0  0  0  0  0
   22.1618   93.1514   74.6355 C   0  0  0  0  0  0  0  0  0  0  0  0
   20.8389   90.8168   78.7223 F   0  0  0  0  0  0  0  0  0  0  0  0
   22.4387   89.9715   78.3678 F   0  0  0  0  0  0  0  0  0  0  0  0
   22.8804   92.0776   74.6758 C   0  0  0  0  0  0  0  0  0  0  0  0
   20.5817   89.3907   77.1608 F   0  0  0  0  0  0  0  0  0  0  0  0
   24.1072   91.9516   73.5568 C   0  0  0  0  0  0  0  0  0  0  0  0
   25.1849   91.3364   74.0546 N   0  0  0  0  0  0  0  0  0  0  0  0
   26.2780   92.1569   74.1349 C   0  0  0  0  0  0  0  0  0  0  0  0
   27.5538   91.5364   73.7552 N   0  0  0  0  0  0  0  0  0  0  0  0
   26.3545   93.3407   74.3523 O   0  0  0  0  0  0  0  0  0  0  0  0
   25.6013   89.9903   73.3594 C   0  0  1  0  0  0  0  0  0  0  0  0
   28.7786   92.0579   73.6569 C   0  0  0  0  0  0  0  0  0  0  0  0
   27.0986   90.1386   73.3786 C   0  0  0  0  0  0  0  0  0  0  0  0
   25.1367   88.8407   73.9010 C   0  0  0  0  0  0  0  0  0  0  0  0
   24.3717   88.0286   72.9445 C   0  0  0  0  0  0  0  0  0  0  0  0
   24.8798   88.0098   71.7908 O   0  0  0  0  0  0  0  0  0  0  0  0
  1  2  1  0
  2  3  1  0
  3  4  1  0
  3  5  1  0
  1  6  1  0
  5  7  1  0
  5  8  1  0
  4  9  1  0
  6  9  1  0
  5 10  1  0
  9 11  1  0
 11 12  1  0
 12 13  1  0
 13 14  1  0
 13 15  2  0
 12 16  1  0
 14 17  1  0
 14 18  1  0
 16 18  1  0
 16 19  1  1
 19 20  1  0
 20 21  1  0
M  END
$$$$
69
     RDKit          3D

 21 23  0  0  0  0  0  0  0  0999 V2000
   25.0507   89.7858   72.6233 C   0  0  0  0  0  0  0  0  0  0  0  0
   23.9819   89.8747   73.2938 N   0  0  0  0  0  0  0  0  0  0  0  0
   23.0210   88.9349   73.4104 C   0  0  0  0  0  0  0  0  0  0  0  0
   24.1702   91.0517   74.2268 C   0  0  1  0  0  0  0  0  0  0  0  0
   25.3770   88.5477   72.0443 O   0  0  0  0  0  0  0  0  0  0  0  0
   25.9996   90.8266   72.4714 N   0  0  0  0  0  0  0  0  0  0  0  0
   27.2453   90.6902   72.1245 C   0  0  0  0  0  0  0  0  0  0  0  0
   21.8643   89.7145   73.1318 O   0  0  0  0  0  0  0  0  0  0  0  0
   21.6255   90.8075   73.8697 C   0  0  2  0  0  0  0  0  0  0  0  0
   25.6341   91.5969   73.8538 C   0  0  0  0  0  0  0  0  0  0  0  0
   22.9700   91.9435   73.9192 C   0  0  1  0  0  0  0  0  0  0  0  0
   21.2782   90.5914   75.3289 C   0  0  1  0  0  0  0  0  0  0  0  0
   22.7770   93.1969   74.0395 C   0  0  0  0  0  0  0  0  0  0  0  0
   20.6688   91.5056   76.0612 O   0  0  0  0  0  0  0  0  0  0  0  0
   20.3364   89.3849   75.4311 C   0  0  0  0  0  0  0  0  0  0  0  0
   20.5249   91.3973   77.5117 C   0  0  0  0  0  0  0  0  0  0  0  0
   19.0413   89.6120   75.1252 O   0  0  0  0  0  0  0  0  0  0  0  0
   21.5794   90.6755   77.9952 C   0  0  0  0  0  0  0  0  0  0  0  0
   26.2733   92.5613   74.3680 C   0  0  0  0  0  0  0  0  0  0  0  0
   27.7745   92.7180   74.1707 C   0  0  0  0  0  0  0  0  0  0  0  0
   28.2496   91.6674   73.0670 C   0  0  0  0  0  0  0  0  0  0  0  0
  1  2  1  0
  2  3  1  0
  2  4  1  0
  1  5  2  0
  1  6  1  0
  6  7  1  0
  3  8  1  0
  9  8  1  1
  4 10  1  6
  6 10  1  0
  4 11  1  0
  9 11  1  0
  9 12  1  0
 11 13  1  1
 12 14  1  0
 12 15  1  6
 14 16  1  0
 15 17  1  0
 16 18  1  0
 10 19  2  0
 19 20  1  0
  7 21  1  0
 20 21  1  0
M  END
$$$$
7
     RDKit          3D

 16 16  0  0  0  0  0  0  0  0999 V2000
   21.5014   90.3027   77.9188 C   0  0  0  0  0  0  0  0  0  0  0  0
   22.0635   90.0059   76.8278 C   0  0  0  0  0  0  0  0  0  0  0  0
   21.9682   90.6488   75.7293 C   0  0  2  0  0  0  0  0  0  0  0  0
   20.4430   91.0785   77.8653 C   0  0  1  0  0  0  0  0  0  0  0  0
   19.5835   91.4313   79.0026 O   0  0  0  0  0  0  0  0  0  0  0  0
   20.9001   91.5567   75.5838 C   0  0  0  0  0  0  0  0  0  0  0  0
   20.1526   91.7696   76.6526 C   0  0  0  0  0  0  0  0  0  0  0  0
   22.9664   90.2154   74.4246 C   0  0  0  0  0  0  0  0  0  0  0  0
   24.3088   90.5444   74.5857 O   0  0  0  0  0  0  0  0  0  0  0  0
   24.9488   91.1296   73.4597 C   0  0  1  0  0  0  0  0  0  0  0  0
   22.4689   89.7278   73.3355 O   0  0  0  0  0  0  0  0  0  0  0  0
   25.3422   92.4941   73.8613 C   0  0  0  0  0  0  0  0  0  0  0  0
   25.9681   90.3332   72.7140 C   0  0  0  0  0  0  0  0  0  0  0  0
   24.5378   93.1939   74.6322 O   0  0  0  0  0  0  0  0  0  0  0  0
   25.9678   89.0739   73.4475 O   0  0  0  0  0  0  0  0  0  0  0  0
   26.6286   92.6375   73.7432 O   0  0  0  0  0  0  0  0  0  0  0  0
  1  2  1  0
  2  3  1  0
  1  4  1  0
  4  5  1  1
  3  6  1  0
  4  7  1  0
  6  7  1  0
  3  8  1  6
  8  9  1  0
  9 10  1  0
  8 11  2  0
 10 12  1  0
 10 13  1  1
 12 14  1  0
 13 15  1  0
 12 16  2  0
M  END
$$$$
70
     RDKit          3D

 21 22  0  0  0  0  0  0  0  0999 V2000
   19.1720   89.7260   71.4704 O   0  0  0  0  0  0  0  0  0  0  0  0
   19.3383   89.2690   72.7181 C   0  0  0  0  0  0  0  0  0  0  0  0
   18.4893   88.3938   73.2712 O   0  0  0  0  0  0  0  0  0  0  0  0
   20.5241   89.5843   73.4895 C   0  0  1  0  0  0  0  0  0  0  0  0
   21.4920   90.0908   73.1844 N   0  0  0  0  0  0  0  0  0  0  0  0
   20.3428   89.2863   74.9798 C   0  0  0  0  0  0  0  0  0  0  0  0
   21.3104   89.8304   75.5096 N   0  0  0  0  0  0  0  0  0  0  0  0
   22.2056   90.3016   74.4514 C   0  0  2  0  0  0  0  0  0  0  0  0
   23.3722   91.0122   74.4536 C   0  0  1  0  0  0  0  0  0  0  0  0
   24.5349   90.3199   73.8902 C   0  0  2  0  0  0  0  0  0  0  0  0
   23.5395   92.4495   74.1180 C   0  0  2  0  0  0  0  0  0  0  0  0
   24.6758   88.9582   73.7502 N   0  0  0  0  0  0  0  0  0  0  0  0
   25.6677   91.1763   73.6449 N   0  0  0  0  0  0  0  0  0  0  0  0
   21.5485   90.2738   76.8800 C   0  0  0  0  0  0  0  0  0  0  0  0
   20.7619   91.4076   77.3221 C   0  0  0  0  0  0  0  0  0  0  0  0
   25.2462   88.5193   72.5607 C   0  0  0  0  0  0  0  0  0  0  0  0
   21.4867   92.5445   77.2047 O   0  0  0  0  0  0  0  0  0  0  0  0
   25.0175   92.5801   73.8969 N   0  0  0  0  0  0  0  0  0  0  0  0
   22.7542   93.4941   74.2974 C   0  0  0  0  0  0  0  0  0  0  0  0
   26.9358   91.0665   73.5771 C   0  0  0  0  0  0  0  0  0  0  0  0
   27.8967   91.9672   74.1837 C   0  0  0  0  0  0  0  0  0  0  0  0
  1  2  1  0
  2  3  2  0
  4  2  1  1
  4  5  1  0
  4  6  1  0
  6  7  1  0
  8  5  1  6
  7  8  1  0
  9  8  1  6
  9 10  1  0
  9 11  1  0
 10 12  1  1
 10 13  1  0
  7 14  1  0
 14 15  1  0
 12 16  1  0
 15 17  1  0
 11 18  1  0
 13 18  1  0
 11 19  1  1
 13 20  1  0
 20 21  1  0
M  END
$$$$
71
     RDKit          3D

 21 22  0  0  0  0  0  0  0  0999 V2000
   21.2272   90.1770   77.8729 C   0  0  0  0  0  0  0  0  0  0  0  0
   21.9243   89.9577   76.8172 C   0  0  0  0  0  0  0  0  0  0  0  0
   20.1857   90.8062   77.8890 C   0  0  0  0  0  0  0  0  0  0  0  0
   19.6732   91.3568   76.6662 C   0  0  1  0  0  0  0  0  0  0  0  0
   18.4570   92.2360   76.6398 O   0  0  0  0  0  0  0  0  0  0  0  0
   17.2100   91.7109   76.3149 C   0  0  0  0  0  0  0  0  0  0  0  0
   20.4660   91.1615   75.5506 C   0  0  0  0  0  0  0  0  0  0  0  0
   21.4946   90.5346   75.6094 C   0  0  2  0  0  0  0  0  0  0  0  0
   22.3580   90.1946   74.3611 C   0  0  0  0  0  0  0  0  0  0  0  0
   23.7889   90.2118   74.5098 O   0  0  0  0  0  0  0  0  0  0  0  0
   24.6765   90.6978   73.5105 C   0  0  1  0  0  0  0  0  0  0  0  0
   25.0951   92.0419   73.7331 C   0  0  1  0  0  0  0  0  0  0  0  0
   24.2487   92.9365   74.2946 N   0  0  0  0  0  0  0  0  0  0  0  0
   26.4537   92.3292   74.1086 C   0  0  1  0  0  0  0  0  0  0  0  0
   27.4398   91.4099   73.5011 N   0  0  0  0  0  0  0  0  0  0  0  0
   22.7986   93.2465   74.3467 C   0  0  0  0  0  0  0  0  0  0  0  0
   21.8685   90.0657   73.1123 O   0  0  0  0  0  0  0  0  0  0  0  0
   26.9145   90.1586   72.9944 C   0  0  0  0  0  0  0  0  0  0  0  0
   25.5970   89.7625   73.0148 C   0  0  1  0  0  0  0  0  0  0  0  0
   27.0109   93.4811   74.5020 N   0  0  0  0  0  0  0  0  0  0  0  0
   25.3126   88.3689   72.8287 C   0  0  0  0  0  0  0  0  0  0  0  0
  1  2  1  0
  1  3  1  0
  3  4  1  0
  4  5  1  1
  5  6  1  0
  4  7  1  0
  2  8  1  0
  7  8  1  0
  8  9  1  6
  9 10  1  0
 11 10  1  1
 11 12  1  0
 12 13  1  1
 12 14  1  0
 14 15  1  0
 13 16  1  0
  9 17  2  0
 15 18  1  0
 11 19  1  0
 18 19  1  0
 14 20  1  6
 19 21  1  1
M  END
$$$$
72
     RDKit          3D

 21 23  0  0  0  0  0  0  0  0999 V2000
   21.0692   93.5042   75.4357 C   0  0  0  0  0  0  0  0  0  0  0  0
   20.7887   92.6296   76.4947 C   0  0  0  0  0  0  0  0  0  0  0  0
   21.5626   91.4080   76.6344 C   0  0  0  0  0  0  0  0  0  0  0  0
   22.5698   91.1743   75.6480 C   0  0  0  0  0  0  0  0  0  0  0  0
   21.3121   90.4214   77.7342 C   0  0  0  0  0  0  0  0  0  0  0  0
   22.1618   93.1514   74.6355 C   0  0  0  0  0  0  0  0  0  0  0  0
   22.8640   91.9933   74.7012 C   0  0  0  0  0  0  0  0  0  0  0  0
   19.9796   89.9268   77.7048 C   0  0  0  0  0  0  0  0  0  0  0  0
   23.9865   91.8372   73.6459 C   0  0  1  0  0  0  0  0  0  0  0  0
   24.9995   92.6379   73.5868 N   0  0  0  0  0  0  0  0  0  0  0  0
   26.3008   92.3426   73.6956 C   0  0  0  0  0  0  0  0  0  0  0  0
   24.3541   90.3689   73.5676 C   0  0  2  0  0  0  0  0  0  0  0  0
   25.5885   90.0214   73.1178 C   0  0  2  0  0  0  0  0  0  0  0  0
   23.1797   89.3456   73.2380 C   0  0  2  0  0  0  0  0  0  0  0  0
   25.9141   88.7693   72.8484 N   0  0  0  0  0  0  0  0  0  0  0  0
   21.9257   89.6078   73.6624 O   0  0  0  0  0  0  0  0  0  0  0  0
   26.6279   90.9832   73.2794 N   0  0  0  0  0  0  0  0  0  0  0  0
   27.4442   92.9337   73.6103 O   0  0  0  0  0  0  0  0  0  0  0  0
   20.8986   89.4767   72.7862 C   0  0  0  0  0  0  0  0  0  0  0  0
   23.6231   88.2170   72.7921 C   0  0  0  0  0  0  0  0  0  0  0  0
   24.9774   87.8755   72.5785 C   0  0  0  0  0  0  0  0  0  0  0  0
  1  2  1  0
  2  3  1  0
  3  4  1  0
  3  5  1  0
  1  6  1  0
  4  7  1  0
  6  7  1  0
  5  8  1  0
  9  7  1  1
  9 10  1  0
 10 11  1  0
 12  9  1  6
 12 13  1  0
 12 14  1  0
 13 15  1  1
 14 16  1  1
 11 17  1  0
 13 17  1  0
 11 18  2  0
 16 19  1  0
 14 20  1  0
 15 21  1  0
 20 21  1  0
M  END
$$$$
73
     RDKit          3D

 22 26  0  0  0  0  0  0  0  0999 V2000
   25.7301   88.9262   72.7462 N   0  0  0  0  0  0  0  0  0  0  0  0
   25.4749   90.1046   73.1966 C   0  0  2  0  0  0  0  0  0  0  0  0
   26.4536   91.0349   73.3414 N   0  0  0  0  0  0  0  0  0  0  0  0
   24.1506   90.5397   73.6594 C   0  0  0  0  0  0  0  0  0  0  0  0
   23.9654   91.8154   74.1684 C   0  0  0  0  0  0  0  0  0  0  0  0
   24.6656   88.1224   72.9491 C   0  0  0  0  0  0  0  0  0  0  0  0
   27.7817   90.6891   73.0790 N   0  0  0  0  0  0  0  0  0  0  0  0
   28.4253   91.8732   73.5915 C   0  0  0  0  0  0  0  0  0  0  0  0
   26.1975   92.2320   74.0576 C   0  0  2  0  0  0  0  0  0  0  0  0
   23.3388   89.6827   73.5719 N   0  0  0  0  0  0  0  0  0  0  0  0
   24.9919   92.5312   74.2903 N   0  0  0  0  0  0  0  0  0  0  0  0
   22.5956   92.2911   74.5512 C   0  0  0  0  0  0  0  0  0  0  0  0
   22.4190   93.5483   74.7492 C   0  0  1  0  0  0  0  0  0  0  0  0
   23.4065   88.5607   73.1901 N   0  0  0  0  0  0  0  0  0  0  0  0
   27.4534   92.9944   74.1495 C   0  0  0  0  0  0  0  0  0  0  0  0
   21.5789   91.3377   74.6709 C   0  0  2  0  0  0  0  0  0  0  0  0
   21.8332   89.9415   74.0000 C   0  0  0  0  0  0  0  0  0  0  0  0
   20.8079   89.1115   73.9591 O   0  0  0  0  0  0  0  0  0  0  0  0
   20.2939   91.5240   74.9718 C   0  0  0  0  0  0  0  0  0  0  0  0
   23.3046   94.5169   74.6289 O   0  0  0  0  0  0  0  0  0  0  0  0
   21.0230   93.9089   75.0783 C   0  0  0  0  0  0  0  0  0  0  0  0
   20.0984   92.9024   75.3556 C   0  0  0  0  0  0  0  0  0  0  0  0
  2  1  1  1
  2  3  1  0
  2  4  1  0
  4  5  1  0
  1  6  1  0
  3  7  1  0
  7  8  1  0
  3  9  1  0
  4 10  1  0
  5 11  1  0
  9 11  1  0
  5 12  1  0
 12 13  1  0
  6 14  1  0
 10 14  1  0
  8 15  1  0
  9 15  1  6
 12 16  1  0
 10 17  1  0
 16 17  1  0
 17 18  2  0
 16 19  1  6
 13 20  1  6
 13 21  1  0
 19 22  1  0
 21 22  1  0
M  END
$$$$
74
     RDKit          3D

 22 24  0  0  0  0  0  0  0  0999 V2000
   24.0844   93.3999   73.7595 O   0  0  0  0  0  0  0  0  0  0  0  0
   22.9226   92.9057   74.0272 C   0  0  0  0  0  0  0  0  0  0  0  0
   24.9804   92.2097   73.7311 C   0  0  1  0  0  0  0  0  0  0  0  0
   22.9186   91.4939   74.0394 C   0  0  0  0  0  0  0  0  0  0  0  0
   24.3161   91.0517   73.7933 C   0  0  1  0  0  0  0  0  0  0  0  0
   21.8412   90.5247   74.2127 C   0  0  0  0  0  0  0  0  0  0  0  0
   24.8878   89.7192   73.5818 C   0  0  0  0  0  0  0  0  0  0  0  0
   20.6331   90.9219   74.7421 N   0  0  0  0  0  0  0  0  0  0  0  0
   26.3953   92.1152   73.4490 C   0  0  0  0  0  0  0  0  0  0  0  0
   20.4048   92.0204   75.4923 C   0  0  0  0  0  0  0  0  0  0  0  0
   19.4044   90.1130   74.2298 C   0  0  0  0  0  0  0  0  0  0  0  0
   21.9745   89.2025   74.0023 O   0  0  0  0  0  0  0  0  0  0  0  0
   24.2080   88.5538   73.6455 O   0  0  0  0  0  0  0  0  0  0  0  0
   27.0043   90.9011   73.3573 C   0  0  0  0  0  0  0  0  0  0  0  0
   28.4244   90.8472   73.2634 O   0  0  0  0  0  0  0  0  0  0  0  0
   26.2380   89.7067   73.4104 N   0  0  0  0  0  0  0  0  0  0  0  0
   19.4879   91.7980   76.5757 C   0  0  2  0  0  0  0  0  0  0  0  0
   29.1561   91.4009   74.3040 C   0  0  0  0  0  0  0  0  0  0  0  0
   19.5847   92.7467   77.5805 O   0  0  0  0  0  0  0  0  0  0  0  0
   19.6428   90.3683   76.9925 C   0  0  2  0  0  0  0  0  0  0  0  0
   18.9086   89.5403   75.6041 C   0  0  0  0  0  0  0  0  0  0  0  0
   18.8625   90.1487   78.2137 O   0  0  0  0  0  0  0  0  0  0  0  0
  1  2  1  0
  1  3  1  0
  2  4  1  0
  3  5  1  0
  5  4  1  6
  4  6  1  0
  5  7  1  0
  6  8  1  0
  3  9  1  6
  8 10  1  0
  8 11  1  0
  6 12  2  0
  7 13  2  0
  9 14  1  0
 14 15  1  0
  7 16  1  0
 14 16  1  0
 10 17  1  0
 15 18  1  0
 17 19  1  1
 17 20  1  0
 11 21  1  0
 20 21  1  0
 20 22  1  1
M  END
$$$$
75
     RDKit          3D

 22 26  0  0  0  0  0  0  0  0999 V2000
   25.7301   88.9262   72.7462 N   0  0  0  0  0  0  0  0  0  0  0  0
   25.4749   90.1046   73.1966 C   0  0  2  0  0  0  0  0  0  0  0  0
   26.4536   91.0349   73.3414 N   0  0  0  0  0  0  0  0  0  0  0  0
   24.1506   90.5397   73.6594 C   0  0  0  0  0  0  0  0  0  0  0  0
   23.9654   91.8154   74.1684 C   0  0  0  0  0  0  0  0  0  0  0  0
   24.6656   88.1224   72.9491 C   0  0  0  0  0  0  0  0  0  0  0  0
   27.7817   90.6891   73.0790 N   0  0  0  0  0  0  0  0  0  0  0  0
   28.4253   91.8732   73.5915 C   0  0  2  0  0  0  0  0  0  0  0  0
   26.1975   92.2320   74.0576 C   0  0  0  0  0  0  0  0  0  0  0  0
   23.3388   89.6827   73.5719 N   0  0  0  0  0  0  0  0  0  0  0  0
   24.9919   92.5312   74.2903 N   0  0  0  0  0  0  0  0  0  0  0  0
   22.5956   92.2911   74.5512 C   0  0  0  0  0  0  0  0  0  0  0  0
   22.4190   93.5483   74.7492 C   0  0  0  0  0  0  0  0  0  0  0  0
   23.4447   88.6406   73.2460 N   0  0  0  0  0  0  0  0  0  0  0  0
   29.8494   92.0167   73.6422 C   0  0  0  0  0  0  0  0  0  0  0  0
   27.5223   92.6682   74.2099 N   0  0  0  0  0  0  0  0  0  0  0  0
   21.6008   91.2849   74.6285 C   0  0  2  0  0  0  0  0  0  0  0  0
   22.0121   90.1421   74.1235 C   0  0  0  0  0  0  0  0  0  0  0  0
   21.1316   89.0514   73.7991 O   0  0  0  0  0  0  0  0  0  0  0  0
   20.3340   91.5698   74.9764 C   0  0  0  0  0  0  0  0  0  0  0  0
   20.1695   92.7736   75.6434 C   0  0  0  0  0  0  0  0  0  0  0  0
   21.0472   93.8012   75.3275 C   0  0  0  0  0  0  0  0  0  0  0  0
  2  1  1  1
  2  3  1  0
  2  4  1  0
  4  5  1  0
  1  6  1  0
  3  7  1  0
  7  8  1  0
  3  9  1  0
  4 10  1  0
  5 11  1  0
  9 11  1  0
  5 12  1  0
 12 13  1  0
  6 14  1  0
 10 14  1  0
  8 15  1  1
  8 16  1  0
  9 16  1  0
 12 17  1  0
 10 18  1  0
 17 18  1  0
 18 19  2  0
 17 20  1  6
 20 21  1  0
 13 22  1  0
 21 22  1  0
M  END
$$$$
76
     RDKit          3D

 22 24  0  0  0  0  0  0  0  0999 V2000
   25.0507   89.7858   72.6233 C   0  0  2  0  0  0  0  0  0  0  0  0
   23.9819   89.8747   73.2938 C   0  0  1  0  0  0  0  0  0  0  0  0
   22.9948   88.9238   73.3710 O   0  0  0  0  0  0  0  0  0  0  0  0
   21.7654   89.4674   73.6353 N   0  0  0  0  0  0  0  0  0  0  0  0
   23.6845   90.9745   74.1889 C   0  0  2  0  0  0  0  0  0  0  0  0
   25.4997   88.5216   72.1663 O   0  0  0  0  0  0  0  0  0  0  0  0
   26.2280   90.6329   73.3535 C   0  0  1  0  0  0  0  0  0  0  0  0
   27.5433   90.6019   72.6839 O   0  0  0  0  0  0  0  0  0  0  0  0
   22.1342   90.6975   74.2935 C   0  0  2  0  0  0  0  0  0  0  0  0
   21.2893   91.5392   75.1270 C   0  0  2  0  0  0  0  0  0  0  0  0
   24.2688   92.0493   74.6891 C   0  0  2  0  0  0  0  0  0  0  0  0
   20.1112   91.0023   75.5192 C   0  0  2  0  0  0  0  0  0  0  0  0
   23.9124   93.1008   75.2696 O   0  0  0  0  0  0  0  0  0  0  0  0
   25.7793   91.9317   74.0172 C   0  0  1  0  0  0  0  0  0  0  0  0
   28.5277   91.4038   73.3265 C   0  0  0  0  0  0  0  0  0  0  0  0
   26.5318   93.0059   74.2591 O   0  0  0  0  0  0  0  0  0  0  0  0
   21.6025   92.6792   75.2587 O   0  0  0  0  0  0  0  0  0  0  0  0
   19.5041   89.8090   74.8305 C   0  0  0  0  0  0  0  0  0  0  0  0
   19.3168   91.6702   76.5303 C   0  0  0  0  0  0  0  0  0  0  0  0
   20.4551   89.0647   73.6602 C   0  0  0  0  0  0  0  0  0  0  0  0
   19.9465   92.0550   77.6216 O   0  0  0  0  0  0  0  0  0  0  0  0
   18.0690   91.8195   76.5710 O   0  0  0  0  0  0  0  0  0  0  0  0
  1  2  1  0
  2  3  1  1
  3  4  1  0
  2  5  1  0
  1  6  1  1
  1  7  1  0
  7  8  1  6
  9  4  1  1
  5  9  1  0
  9 10  1  0
  5 11  1  6
 10 12  1  0
 11 13  1  6
  7 14  1  0
 11 14  1  0
  8 15  1  0
 14 16  1  1
 10 17  1  6
 12 18  1  0
 12 19  1  6
  4 20  1  0
 18 20  1  0
 19 21  1  0
 19 22  2  0
M  END
$$$$
77
     RDKit          3D

 22 25  0  0  0  0  0  0  0  0999 V2000
   25.0507   89.7858   72.6233 C   0  0  0  0  0  0  0  0  0  0  0  0
   23.9819   89.8747   73.2938 N   0  0  0  0  0  0  0  0  0  0  0  0
   23.0210   88.9349   73.4104 C   0  0  0  0  0  0  0  0  0  0  0  0
   24.1702   91.0517   74.2268 C   0  0  1  0  0  0  0  0  0  0  0  0
   25.3770   88.5477   72.0443 O   0  0  0  0  0  0  0  0  0  0  0  0
   25.9996   90.8266   72.4714 N   0  0  0  0  0  0  0  0  0  0  0  0
   27.2453   90.6902   72.1245 C   0  0  0  0  0  0  0  0  0  0  0  0
   21.8643   89.7145   73.1318 O   0  0  0  0  0  0  0  0  0  0  0  0
   21.6255   90.8075   73.8697 C   0  0  2  0  0  0  0  0  0  0  0  0
   25.6341   91.5969   73.8538 C   0  0  0  0  0  0  0  0  0  0  0  0
   22.9700   91.9435   73.9192 C   0  0  1  0  0  0  0  0  0  0  0  0
   21.2782   90.5914   75.3289 C   0  0  0  0  0  0  0  0  0  0  0  0
   22.7770   93.1969   74.0395 C   0  0  0  0  0  0  0  0  0  0  0  0
   26.3187   92.5910   74.3364 C   0  0  0  0  0  0  0  0  0  0  0  0
   19.9755   90.3671   75.6136 C   0  0  0  0  0  0  0  0  0  0  0  0
   27.8011   92.6984   73.9501 C   0  0  0  0  0  0  0  0  0  0  0  0
   28.5830   93.3575   74.5901 O   0  0  0  0  0  0  0  0  0  0  0  0
   28.1473   91.9090   72.7799 C   0  0  0  0  0  0  0  0  0  0  0  0
   19.5083   90.0912   76.9705 C   0  0  0  0  0  0  0  0  0  0  0  0
   22.1251   90.5374   76.4851 C   0  0  0  0  0  0  0  0  0  0  0  0
   20.2554   90.0919   77.8456 C   0  0  0  0  0  0  0  0  0  0  0  0
   21.7271   90.3533   77.6575 C   0  0  0  0  0  0  0  0  0  0  0  0
  1  2  1  0
  2  3  1  0
  2  4  1  0
  1  5  2  0
  1  6  1  0
  6  7  1  0
  3  8  1  0
  8  9  1  0
  4 10  1  6
  6 10  1  0
  4 11  1  0
  9 11  1  0
  9 12  1  1
 11 13  1  1
 10 14  2  0
 12 15  1  0
 14 16  1  0
 16 17  2  0
  7 18  1  0
 16 18  1  0
 15 19  1  0
 12 20  1  0
 19 21  1  0
 20 22  1  0
 21 22  1  0
M  END
$$$$
78
     RDKit          3D

 22 24  0  0  0  0  0  0  0  0999 V2000
   18.3705   88.4740   74.3376 C   0  0  0  0  0  0  0  0  0  0  0  0
   18.9449   88.9259   73.1725 C   0  0  0  0  0  0  0  0  0  0  0  0
   18.8126   89.0738   75.4057 C   0  0  0  0  0  0  0  0  0  0  0  0
   20.1809   89.6728   73.1770 N   0  0  0  0  0  0  0  0  0  0  0  0
   20.5295   90.0112   74.2904 C   0  0  0  0  0  0  0  0  0  0  0  0
   19.9559   89.7854   75.4714 C   0  0  0  0  0  0  0  0  0  0  0  0
   20.6881   90.4276   76.6170 C   0  0  0  0  0  0  0  0  0  0  0  0
   21.7313   90.7276   74.5682 N   0  0  0  0  0  0  0  0  0  0  0  0
   18.4868   88.4492   71.9072 O   0  0  0  0  0  0  0  0  0  0  0  0
   22.7510   91.2639   73.6879 C   0  0  0  0  0  0  0  0  0  0  0  0
   21.7742   90.8907   75.9931 C   0  0  0  0  0  0  0  0  0  0  0  0
   23.7499   90.4861   73.4793 C   0  0  1  0  0  0  0  0  0  0  0  0
   23.6319   89.1393   73.0453 C   0  0  0  0  0  0  0  0  0  0  0  0
   24.7353   88.3502   72.7659 C   0  0  0  0  0  0  0  0  0  0  0  0
   22.7508   92.6517   73.3721 O   0  0  0  0  0  0  0  0  0  0  0  0
   25.9943   88.9707   72.8135 N   0  0  0  0  0  0  0  0  0  0  0  0
   25.1055   91.1216   73.2640 C   0  0  1  0  0  0  0  0  0  0  0  0
   25.2609   92.5350   73.5827 O   0  0  0  0  0  0  0  0  0  0  0  0
   26.1802   90.3583   72.8720 C   0  0  1  0  0  0  0  0  0  0  0  0
   27.4806   91.0419   72.8593 C   0  0  0  0  0  0  0  0  0  0  0  0
   28.1560   91.2252   74.1474 C   0  0  0  0  0  0  0  0  0  0  0  0
   29.5467   91.3720   74.0444 C   0  0  0  0  0  0  0  0  0  0  0  0
  1  2  1  0
  1  3  1  0
  2  4  1  0
  4  5  1  0
  3  6  1  0
  5  6  1  0
  6  7  1  0
  5  8  1  0
  2  9  2  0
  8 10  1  0
  7 11  1  0
  8 11  1  0
 12 10  1  6
 12 13  1  0
 13 14  1  0
 10 15  2  0
 14 16  1  0
 12 17  1  0
 17 18  1  1
 16 19  1  0
 17 19  1  0
 19 20  1  1
 20 21  1  0
 21 22  1  0
M  END
$$$$
79
     RDKit          3D

 22 24  0  0  0  0  0  0  0  0999 V2000
   21.0692   93.5042   75.4357 C   0  0  0  0  0  0  0  0  0  0  0  0
   22.1435   92.9808   74.8159 C   0  0  2  0  0  0  0  0  0  0  0  0
   23.0157   93.6089   74.0841 N   0  0  0  0  0  0  0  0  0  0  0  0
   24.0525   93.0460   73.5618 N   0  0  0  0  0  0  0  0  0  0  0  0
   24.2593   91.8448   73.8533 C   0  0  1  0  0  0  0  0  0  0  0  0
   22.4351   91.4872   74.7453 C   0  0  2  0  0  0  0  0  0  0  0  0
   21.3193   90.7464   75.6461 C   0  0  0  0  0  0  0  0  0  0  0  0
   23.4130   90.8740   74.3191 C   0  0  0  0  0  0  0  0  0  0  0  0
   25.6902   91.2697   73.2198 C   0  0  0  0  0  0  0  0  0  0  0  0
   23.5232   89.3905   74.3767 C   0  0  0  0  0  0  0  0  0  0  0  0
   20.3914   91.2267   76.3147 C   0  0  0  0  0  0  0  0  0  0  0  0
   20.2580   92.7419   76.2336 C   0  0  0  0  0  0  0  0  0  0  0  0
   25.7318   89.8996   72.9111 C   0  0  0  0  0  0  0  0  0  0  0  0
   26.7448   92.0925   73.0592 C   0  0  0  0  0  0  0  0  0  0  0  0
   19.3979   90.5202   77.1614 C   0  0  0  0  0  0  0  0  0  0  0  0
   27.6952   92.0552   74.0812 C   0  0  0  0  0  0  0  0  0  0  0  0
   28.7999   91.3179   73.6751 O   0  0  0  0  0  0  0  0  0  0  0  0
   24.7304   88.9836   73.5435 C   0  0  0  0  0  0  0  0  0  0  0  0
   18.9435   90.8977   78.1949 F   0  0  0  0  0  0  0  0  0  0  0  0
   19.9992   89.2741   77.5964 F   0  0  0  0  0  0  0  0  0  0  0  0
   24.8035   87.7743   73.0147 O   0  0  0  0  0  0  0  0  0  0  0  0
   18.4212   89.9940   76.3170 F   0  0  0  0  0  0  0  0  0  0  0  0
  2  1  1  6
  2  3  1  0
  3  4  1  0
  5  4  1  6
  2  6  1  0
  6  7  1  1
  5  8  1  0
  6  8  1  0
  5  9  1  0
  8 10  1  0
  7 11  1  0
  1 12  1  0
 11 12  1  0
  9 13  1  0
  9 14  1  0
 11 15  1  0
 14 16  1  0
 16 17  1  0
 10 18  1  0
 13 18  1  0
 15 19  1  0
 15 20  1  0
 18 21  2  0
 15 22  1  0
M  END
$$$$
8
     RDKit          3D

 16 18  0  0  0  0  0  0  0  0999 V2000
   18.3705   88.4740   74.3376 C   0  0  0  0  0  0  0  0  0  0  0  0
   18.9449   88.9259   73.1725 C   0  0  0  0  0  0  0  0  0  0  0  0
   18.8126   89.0738   75.4057 C   0  0  0  0  0  0  0  0  0  0  0  0
   20.1809   89.6728   73.1770 N   0  0  0  0  0  0  0  0  0  0  0  0
   20.5295   90.0112   74.2904 C   0  0  0  0  0  0  0  0  0  0  0  0
   21.7835   90.8093   74.2666 N   0  0  0  0  0  0  0  0  0  0  0  0
   19.9750   89.8406   75.4545 C   0  0  0  0  0  0  0  0  0  0  0  0
   20.5033   90.3514   76.7992 C   0  0  0  0  0  0  0  0  0  0  0  0
   22.4391   91.1256   73.0850 C   0  0  0  0  0  0  0  0  0  0  0  0
   22.1307   91.7601   75.1588 C   0  0  1  0  0  0  0  0  0  0  0  0
   21.5768   91.2965   76.6521 C   0  0  1  0  0  0  0  0  0  0  0  0
   20.0067   90.0775   77.8043 O   0  0  0  0  0  0  0  0  0  0  0  0
   23.1412   92.6325   75.0782 C   0  0  0  0  0  0  0  0  0  0  0  0
   23.4821   91.9588   73.0200 N   0  0  0  0  0  0  0  0  0  0  0  0
   22.0216   91.9162   77.7758 C   0  0  0  0  0  0  0  0  0  0  0  0
   23.7708   92.7632   73.9624 C   0  0  0  0  0  0  0  0  0  0  0  0
  1  2  1  0
  1  3  1  0
  2  4  1  0
  4  5  1  0
  5  6  1  0
  3  7  1  0
  5  7  1  0
  7  8  1  0
  6  9  1  0
  6 10  1  0
  8 11  1  0
 10 11  1  0
  8 12  2  0
 10 13  1  1
  9 14  1  0
 11 15  1  1
 13 16  1  0
 14 16  1  0
M  END
$$$$
80
     RDKit          3D

 22 25  0  0  0  0  0  0  0  0999 V2000
   18.3705   88.4740   74.3376 C   0  0  0  0  0  0  0  0  0  0  0  0
   18.9449   88.9259   73.1725 C   0  0  0  0  0  0  0  0  0  0  0  0
   18.8126   89.0738   75.4057 C   0  0  0  0  0  0  0  0  0  0  0  0
   20.1809   89.6728   73.1770 N   0  0  0  0  0  0  0  0  0  0  0  0
   20.5295   90.0112   74.2904 C   0  0  0  0  0  0  0  0  0  0  0  0
   19.9559   89.7854   75.4714 C   0  0  0  0  0  0  0  0  0  0  0  0
   20.6881   90.4276   76.6170 C   0  0  0  0  0  0  0  0  0  0  0  0
   21.7313   90.7276   74.5682 N   0  0  0  0  0  0  0  0  0  0  0  0
   18.4868   88.4492   71.9072 O   0  0  0  0  0  0  0  0  0  0  0  0
   22.7510   91.2639   73.6879 C   0  0  0  0  0  0  0  0  0  0  0  0
   21.7742   90.8907   75.9931 C   0  0  0  0  0  0  0  0  0  0  0  0
   23.7499   90.4861   73.4793 C   0  0  0  0  0  0  0  0  0  0  0  0
   23.6319   89.1393   73.0453 C   0  0  0  0  0  0  0  0  0  0  0  0
   24.7353   88.3502   72.7659 C   0  0  0  0  0  0  0  0  0  0  0  0
   22.7508   92.6517   73.3721 O   0  0  0  0  0  0  0  0  0  0  0  0
   25.9943   88.9707   72.8135 N   0  0  0  0  0  0  0  0  0  0  0  0
   25.8964   90.2913   73.4462 C   0  0  2  0  0  0  0  0  0  0  0  0
   25.0335   91.0338   73.6648 C   0  0  1  0  0  0  0  0  0  0  0  0
   25.4900   92.4002   74.0144 C   0  0  0  0  0  0  0  0  0  0  0  0
   26.8709   92.4483   74.1753 C   0  0  2  0  0  0  0  0  0  0  0  0
   27.6604   93.4239   74.5609 O   0  0  0  0  0  0  0  0  0  0  0  0
   27.2143   91.0546   73.5691 N   0  0  0  0  0  0  0  0  0  0  0  0
  1  2  1  0
  1  3  1  0
  2  4  1  0
  4  5  1  0
  3  6  1  0
  5  6  1  0
  6  7  1  0
  5  8  1  0
  2  9  2  0
  8 10  1  0
  7 11  1  0
  8 11  1  0
 10 12  1  0
 12 13  1  0
 13 14  1  0
 10 15  2  0
 14 16  1  0
 17 16  1  6
 12 18  1  0
 17 18  1  0
 18 19  1  6
 19 20  1  0
 20 21  1  6
 17 22  1  0
 20 22  1  0
M  END
$$$$
81
     RDKit          3D

 22 24  0  0  0  0  0  0  0  0999 V2000
   19.1273   89.0295   71.9956 O   0  0  0  0  0  0  0  0  0  0  0  0
   18.8170   89.5461   73.0152 C   0  0  0  0  0  0  0  0  0  0  0  0
   19.8833   89.7928   73.8659 C   0  0  1  0  0  0  0  0  0  0  0  0
   20.7124   90.8526   73.7512 N   0  0  0  0  0  0  0  0  0  0  0  0
   21.9972   91.0045   74.2696 C   0  0  2  0  0  0  0  0  0  0  0  0
   19.6615   89.8180   75.3679 C   0  0  0  0  0  0  0  0  0  0  0  0
   17.6983   89.5351   73.6828 O   0  0  0  0  0  0  0  0  0  0  0  0
   22.7572   92.2197   73.8489 C   0  0  0  0  0  0  0  0  0  0  0  0
   22.8289   89.7571   73.9883 C   0  0  0  0  0  0  0  0  0  0  0  0
   20.7845   89.7854   76.2633 C   0  0  0  0  0  0  0  0  0  0  0  0
   24.1645   92.1606   74.0987 C   0  0  0  0  0  0  0  0  0  0  0  0
   21.6512   90.9474   75.7500 C   0  0  0  0  0  0  0  0  0  0  0  0
   21.5835   88.4873   76.1546 C   0  0  0  0  0  0  0  0  0  0  0  0
   20.3819   90.2754   77.7163 C   0  0  0  0  0  0  0  0  0  0  0  0
   24.9252   91.1422   73.4112 C   0  0  2  0  0  0  0  0  0  0  0  0
   24.2210   89.8803   73.5177 C   0  0  0  0  0  0  0  0  0  0  0  0
   25.1241   88.8576   73.0378 C   0  0  0  0  0  0  0  0  0  0  0  0
   26.2027   91.3233   72.9233 C   0  0  0  0  0  0  0  0  0  0  0  0
   24.6185   87.5608   73.0406 O   0  0  0  0  0  0  0  0  0  0  0  0
   26.8895   92.5587   72.9939 O   0  0  0  0  0  0  0  0  0  0  0  0
   26.3724   89.0308   72.5480 C   0  0  0  0  0  0  0  0  0  0  0  0
   26.9151   90.3192   72.7207 N   0  0  0  0  0  0  0  0  0  0  0  0
  1  2  2  0
  3  2  1  6
  3  4  1  0
  4  5  1  0
  3  6  1  0
  2  7  1  0
  5  8  1  1
  5  9  1  0
  6 10  1  0
  8 11  1  0
  5 12  1  0
 10 12  1  0
 10 13  1  0
 10 14  1  0
 15 11  1  1
  9 16  1  0
 15 16  1  0
 16 17  1  0
 15 18  1  0
 17 19  1  0
 18 20  2  0
 17 21  1  0
 18 22  1  0
 21 22  1  0
M  END
$$$$
82
     RDKit          3D

 22 24  0  0  0  0  0  0  0  0999 V2000
   19.1816   89.6083   72.0600 C   0  0  0  0  0  0  0  0  0  0  0  0
   20.0343   89.8874   73.1185 C   0  0  2  0  0  0  0  0  0  0  0  0
   19.4305   89.7913   70.9391 O   0  0  0  0  0  0  0  0  0  0  0  0
   17.8466   89.3605   72.4228 O   0  0  0  0  0  0  0  0  0  0  0  0
   21.3715   90.0741   72.9816 N   0  0  0  0  0  0  0  0  0  0  0  0
   19.4936   89.8981   74.3937 C   0  0  0  0  0  0  0  0  0  0  0  0
   22.2550   90.3208   73.8331 C   0  0  1  0  0  0  0  0  0  0  0  0
   21.8420   90.3259   75.1656 C   0  0  1  0  0  0  0  0  0  0  0  0
   20.4311   90.0980   75.4512 C   0  0  1  0  0  0  0  0  0  0  0  0
   19.9847   90.2349   76.8307 C   0  0  0  0  0  0  0  0  0  0  0  0
   20.8474   90.7178   77.8402 C   0  0  0  0  0  0  0  0  0  0  0  0
   22.8655   90.5105   76.2808 C   0  0  0  0  0  0  0  0  0  0  0  0
   23.7137   90.4840   73.3104 C   0  0  0  0  0  0  0  0  0  0  0  0
   24.2581   91.7220   73.3275 C   0  0  0  0  0  0  0  0  0  0  0  0
   25.6675   91.7522   73.0656 C   0  0  0  0  0  0  0  0  0  0  0  0
   24.3867   89.3356   72.8005 C   0  0  0  0  0  0  0  0  0  0  0  0
   22.3103   90.7856   77.5505 C   0  0  0  0  0  0  0  0  0  0  0  0
   26.4094   90.6764   72.7402 C   0  0  0  0  0  0  0  0  0  0  0  0
   25.7901   89.4220   72.7112 C   0  0  0  0  0  0  0  0  0  0  0  0
   27.9457   90.8694   72.5555 C   0  0  0  0  0  0  0  0  0  0  0  0
   28.6248   91.3840   73.7226 C   0  0  0  0  0  0  0  0  0  0  0  0
   27.9320   91.9002   74.8246 O   0  0  0  0  0  0  0  0  0  0  0  0
  2  1  1  1
  1  3  2  0
  1  4  1  0
  2  5  1  0
  2  6  1  0
  5  7  1  0
  7  8  1  0
  9  6  1  6
  8  9  1  0
  9 10  1  0
 10 11  1  0
  8 12  1  1
  7 13  1  1
 13 14  1  0
 14 15  1  0
 13 16  1  0
 11 17  1  0
 12 17  1  0
 15 18  1  0
 16 19  1  0
 18 19  1  0
 18 20  1  0
 20 21  1  0
 21 22  1  0
M  END
$$$$
83
     RDKit          3D

 22 23  0  0  0  0  0  0  0  0999 V2000
   19.1273   89.0295   71.9956 O   0  0  0  0  0  0  0  0  0  0  0  0
   18.8170   89.5461   73.0152 C   0  0  0  0  0  0  0  0  0  0  0  0
   19.8833   89.7928   73.8659 C   0  0  1  0  0  0  0  0  0  0  0  0
   20.7124   90.8526   73.7512 N   0  0  0  0  0  0  0  0  0  0  0  0
   21.9972   91.0045   74.2696 C   0  0  1  0  0  0  0  0  0  0  0  0
   19.6615   89.8180   75.3679 C   0  0  2  0  0  0  0  0  0  0  0  0
   17.6983   89.5351   73.6828 O   0  0  0  0  0  0  0  0  0  0  0  0
   20.9010   89.8952   76.2637 C   0  0  0  0  0  0  0  0  0  0  0  0
   18.7730   88.6216   75.9876 C   0  0  0  0  0  0  0  0  0  0  0  0
   22.8236   92.0277   73.7628 C   0  0  0  0  0  0  0  0  0  0  0  0
   24.2169   91.6267   73.5942 C   0  0  2  0  0  0  0  0  0  0  0  0
   24.5203   90.2919   73.7664 C   0  0  0  0  0  0  0  0  0  0  0  0
   21.9735   90.7625   75.6293 C   0  0  0  0  0  0  0  0  0  0  0  0
   25.2106   92.5459   73.6116 N   0  0  0  0  0  0  0  0  0  0  0  0
   25.9140   89.8906   73.5418 C   0  0  2  0  0  0  0  0  0  0  0  0
   26.1956   88.5382   73.6134 N   0  0  0  0  0  0  0  0  0  0  0  0
   25.6661   87.6176   72.9915 C   0  0  0  0  0  0  0  0  0  0  0  0
   26.7102   91.0217   73.5059 N   0  0  0  0  0  0  0  0  0  0  0  0
   26.3918   92.2191   73.5275 C   0  0  0  0  0  0  0  0  0  0  0  0
   26.3631   86.5048   72.9171 O   0  0  0  0  0  0  0  0  0  0  0  0
   26.0874   85.2969   73.3539 C   0  0  0  0  0  0  0  0  0  0  0  0
   24.5347   87.9218   72.1323 O   0  0  0  0  0  0  0  0  0  0  0  0
  1  2  2  0
  3  2  1  6
  3  4  1  0
  4  5  1  0
  3  6  1  0
  2  7  1  0
  6  8  1  0
  6  9  1  1
  5 10  1  1
 11 10  1  1
 11 12  1  0
  5 13  1  0
  8 13  1  0
 11 14  1  0
 12 15  1  0
 15 16  1  1
 16 17  1  0
 15 18  1  0
 14 19  1  0
 18 19  1  0
 17 20  1  0
 20 21  1  0
 17 22  2  0
M  END
$$$$
84
     RDKit          3D

 22 24  0  0  0  0  0  0  0  0999 V2000
   18.3705   88.4740   74.3376 C   0  0  0  0  0  0  0  0  0  0  0  0
   18.9449   88.9259   73.1725 C   0  0  0  0  0  0  0  0  0  0  0  0
   18.8126   89.0738   75.4057 C   0  0  0  0  0  0  0  0  0  0  0  0
   20.1809   89.6728   73.1770 N   0  0  0  0  0  0  0  0  0  0  0  0
   20.5295   90.0112   74.2904 C   0  0  0  0  0  0  0  0  0  0  0  0
   19.9559   89.7854   75.4714 C   0  0  0  0  0  0  0  0  0  0  0  0
   20.6881   90.4276   76.6170 C   0  0  0  0  0  0  0  0  0  0  0  0
   21.7313   90.7276   74.5682 N   0  0  0  0  0  0  0  0  0  0  0  0
   18.4868   88.4492   71.9072 O   0  0  0  0  0  0  0  0  0  0  0  0
   22.7510   91.2639   73.6879 C   0  0  0  0  0  0  0  0  0  0  0  0
   21.7742   90.8907   75.9931 C   0  0  0  0  0  0  0  0  0  0  0  0
   23.7499   90.4861   73.4793 C   0  0  1  0  0  0  0  0  0  0  0  0
   23.6319   89.1393   73.0453 C   0  0  0  0  0  0  0  0  0  0  0  0
   24.7353   88.3502   72.7659 C   0  0  0  0  0  0  0  0  0  0  0  0
   22.7508   92.6517   73.3721 O   0  0  0  0  0  0  0  0  0  0  0  0
   25.9943   88.9707   72.8135 N   0  0  0  0  0  0  0  0  0  0  0  0
   25.1055   91.1216   73.2640 C   0  0  1  0  0  0  0  0  0  0  0  0
   25.2609   92.5350   73.5827 O   0  0  0  0  0  0  0  0  0  0  0  0
   26.1732   90.3080   73.0413 C   0  0  0  0  0  0  0  0  0  0  0  0
   27.5433   90.9576   73.0336 C   0  0  0  0  0  0  0  0  0  0  0  0
   28.1879   91.0252   74.2689 C   0  0  0  0  0  0  0  0  0  0  0  0
   28.1418   92.2886   74.6062 O   0  0  0  0  0  0  0  0  0  0  0  0
  1  2  1  0
  1  3  1  0
  2  4  1  0
  4  5  1  0
  3  6  1  0
  5  6  1  0
  6  7  1  0
  5  8  1  0
  2  9  2  0
  8 10  1  0
  7 11  1  0
  8 11  1  0
 12 10  1  6
 12 13  1  0
 13 14  1  0
 10 15  2  0
 14 16  1  0
 12 17  1  0
 17 18  1  1
 16 19  1  0
 17 19  1  0
 19 20  1  0
 20 21  1  0
 21 22  1  0
M  END
$$$$
85
     RDKit          3D

 22 25  0  0  0  0  0  0  0  0999 V2000
   25.3842   88.0564   72.8997 N   0  0  0  0  0  0  0  0  0  0  0  0
   25.1266   89.2695   72.9754 C   0  0  2  0  0  0  0  0  0  0  0  0
   26.1751   90.2621   72.9083 N   0  0  0  0  0  0  0  0  0  0  0  0
   26.2409   91.4274   73.5415 C   0  0  0  0  0  0  0  0  0  0  0  0
   23.9145   89.8014   73.4776 N   0  0  0  0  0  0  0  0  0  0  0  0
   24.9602   91.9819   73.9251 C   0  0  1  0  0  0  0  0  0  0  0  0
   23.8812   91.0657   73.9009 C   0  0  1  0  0  0  0  0  0  0  0  0
   24.7671   93.2410   74.5393 N   0  0  0  0  0  0  0  0  0  0  0  0
   23.6146   93.3555   74.9101 C   0  0  0  0  0  0  0  0  0  0  0  0
   22.6188   91.5054   74.2641 N   0  0  0  0  0  0  0  0  0  0  0  0
   22.5342   92.6481   74.8097 C   0  0  0  0  0  0  0  0  0  0  0  0
   27.3422   92.2347   73.4128 O   0  0  0  0  0  0  0  0  0  0  0  0
   21.3021   93.2010   75.2882 O   0  0  0  0  0  0  0  0  0  0  0  0
   21.4313   90.6499   74.1263 C   0  0  1  0  0  0  0  0  0  0  0  0
   21.5043   89.6387   73.2470 O   0  0  0  0  0  0  0  0  0  0  0  0
   20.5715   92.2555   75.9826 C   0  0  0  0  0  0  0  0  0  0  0  0
   19.6382   92.5944   76.6872 O   0  0  0  0  0  0  0  0  0  0  0  0
   20.9773   90.5492   75.5882 C   0  0  1  0  0  0  0  0  0  0  0  0
   19.7342   89.8322   75.7920 C   0  0  2  0  0  0  0  0  0  0  0  0
   19.9451   88.8255   76.9754 C   0  0  0  0  0  0  0  0  0  0  0  0
   19.4964   88.8889   74.6590 C   0  0  0  0  0  0  0  0  0  0  0  0
   20.2012   89.0236   73.5216 N   0  0  0  0  0  0  0  0  0  0  0  0
  2  1  1  1
  2  3  1  0
  3  4  1  0
  2  5  1  0
  4  6  1  0
  7  5  1  6
  6  7  1  0
  6  8  1  1
  8  9  1  0
  7 10  1  0
  9 11  1  0
 10 11  1  0
  4 12  2  0
 11 13  1  0
 10 14  1  0
 14 15  1  1
 13 16  1  0
 16 17  2  0
 14 18  1  0
 18 16  1  6
 18 19  1  0
 19 20  1  1
 19 21  1  0
 15 22  1  0
 21 22  2  0
M  END
$$$$
86
     RDKit          3D

 22 23  0  0  0  0  0  0  0  0999 V2000
   19.1816   89.6083   72.0600 C   0  0  0  0  0  0  0  0  0  0  0  0
   20.0343   89.8874   73.1185 C   0  0  2  0  0  0  0  0  0  0  0  0
   19.4305   89.7913   70.9391 O   0  0  0  0  0  0  0  0  0  0  0  0
   17.8466   89.3605   72.4228 O   0  0  0  0  0  0  0  0  0  0  0  0
   21.3715   90.0741   72.9816 N   0  0  0  0  0  0  0  0  0  0  0  0
   19.4936   89.8981   74.3937 C   0  0  0  0  0  0  0  0  0  0  0  0
   22.2550   90.3208   73.8331 C   0  0  1  0  0  0  0  0  0  0  0  0
   21.8420   90.3259   75.1656 C   0  0  0  0  0  0  0  0  0  0  0  0
   20.4311   90.0980   75.4512 C   0  0  1  0  0  0  0  0  0  0  0  0
   19.9847   90.2349   76.8307 C   0  0  0  0  0  0  0  0  0  0  0  0
   20.8474   90.7178   77.8402 C   0  0  0  0  0  0  0  0  0  0  0  0
   19.5993   88.8194   77.2000 C   0  0  0  0  0  0  0  0  0  0  0  0
   23.7205   90.5255   73.3749 C   0  0  2  0  0  0  0  0  0  0  0  0
   24.4818   89.4173   73.0745 C   0  0  0  0  0  0  0  0  0  0  0  0
   25.8302   89.6454   72.8676 N   0  0  0  0  0  0  0  0  0  0  0  0
   24.1619   88.2074   72.8991 O   0  0  0  0  0  0  0  0  0  0  0  0
   24.4291   91.6908   73.9296 C   0  0  2  0  0  0  0  0  0  0  0  0
   18.8320   91.0162   76.9262 O   0  0  0  0  0  0  0  0  0  0  0  0
   26.5165   90.7984   73.0927 C   0  0  1  0  0  0  0  0  0  0  0  0
   23.6804   92.8408   74.3172 C   0  0  0  0  0  0  0  0  0  0  0  0
   25.7742   91.8451   73.6091 N   0  0  0  0  0  0  0  0  0  0  0  0
   27.7557   91.1310   73.2350 N   0  0  0  0  0  0  0  0  0  0  0  0
  2  1  1  1
  1  3  2  0
  1  4  1  0
  2  5  1  0
  2  6  1  0
  5  7  1  0
  7  8  1  1
  6  9  1  0
  8  9  1  0
  9 10  1  6
 10 11  1  0
 10 12  1  0
  7 13  1  0
 13 14  1  1
 14 15  1  0
 14 16  2  0
 13 17  1  0
 10 18  1  0
 15 19  1  0
 17 20  1  6
 17 21  1  0
 19 21  1  0
 19 22  1  1
M  END
$$$$
87
     RDKit          3D

 22 23  0  0  0  0  0  0  0  0999 V2000
   19.1720   89.7260   71.4704 O   0  0  0  0  0  0  0  0  0  0  0  0
   19.0943   89.7112   72.6073 C   0  0  0  0  0  0  0  0  0  0  0  0
   20.2608   89.9192   73.3814 C   0  0  2  0  0  0  0  0  0  0  0  0
   17.9712   89.3770   73.3332 O   0  0  0  0  0  0  0  0  0  0  0  0
   21.5312   90.0129   73.0891 N   0  0  0  0  0  0  0  0  0  0  0  0
   19.9605   89.9656   74.8835 C   0  0  0  0  0  0  0  0  0  0  0  0
   22.5653   90.2178   73.8490 C   0  0  2  0  0  0  0  0  0  0  0  0
   23.9353   90.3698   73.2428 C   0  0  1  0  0  0  0  0  0  0  0  0
   22.5256   89.9280   75.1924 C   0  0  1  0  0  0  0  0  0  0  0  0
   24.5680   91.6621   73.5020 C   0  0  2  0  0  0  0  0  0  0  0  0
   23.7789   92.7366   73.9957 C   0  0  0  0  0  0  0  0  0  0  0  0
   23.3834   90.2015   76.1175 O   0  0  0  0  0  0  0  0  0  0  0  0
   21.0011   89.9794   75.6313 C   0  0  2  0  0  0  0  0  0  0  0  0
   24.9490   89.3224   73.3978 C   0  0  0  0  0  0  0  0  0  0  0  0
   25.9228   91.8275   73.1065 N   0  0  0  0  0  0  0  0  0  0  0  0
   26.2041   89.5296   72.9768 N   0  0  0  0  0  0  0  0  0  0  0  0
   20.7738   89.8822   77.2031 C   0  0  0  0  0  0  0  0  0  0  0  0
   22.5234   93.1173   73.4565 O   0  0  0  0  0  0  0  0  0  0  0  0
   24.6275   88.1723   73.6842 O   0  0  0  0  0  0  0  0  0  0  0  0
   26.7179   90.7785   72.9671 C   0  0  0  0  0  0  0  0  0  0  0  0
   23.8571   93.2081   75.2526 O   0  0  0  0  0  0  0  0  0  0  0  0
   28.1353   90.9597   72.8442 N   0  0  0  0  0  0  0  0  0  0  0  0
  1  2  2  0
  3  2  1  1
  2  4  1  0
  3  5  1  0
  3  6  1  0
  7  5  1  6
  7  8  1  0
  7  9  1  0
  8 10  1  0
 10 11  1  6
  9 12  1  1
  6 13  1  0
  9 13  1  0
  8 14  1  1
 10 15  1  0
 14 16  1  0
 13 17  1  1
 11 18  1  0
 14 19  2  0
 15 20  1  0
 16 20  1  0
 11 21  2  0
 20 22  1  0
M  END
$$$$
88
     RDKit          3D

 22 23  0  0  0  0  0  0  0  0999 V2000
   19.1720   89.7260   71.4704 O   0  0  0  0  0  0  0  0  0  0  0  0
   19.0943   89.7112   72.6073 C   0  0  0  0  0  0  0  0  0  0  0  0
   20.2608   89.9192   73.3814 C   0  0  2  0  0  0  0  0  0  0  0  0
   17.9712   89.3770   73.3332 O   0  0  0  0  0  0  0  0  0  0  0  0
   21.5312   90.0129   73.0891 N   0  0  0  0  0  0  0  0  0  0  0  0
   19.9605   89.9656   74.8835 C   0  0  0  0  0  0  0  0  0  0  0  0
   22.5653   90.2178   73.8490 C   0  0  2  0  0  0  0  0  0  0  0  0
   23.9353   90.3698   73.2428 C   0  0  1  0  0  0  0  0  0  0  0  0
   22.5256   89.9280   75.1924 C   0  0  1  0  0  0  0  0  0  0  0  0
   24.5680   91.6621   73.5020 C   0  0  2  0  0  0  0  0  0  0  0  0
   23.7789   92.7366   73.9957 C   0  0  0  0  0  0  0  0  0  0  0  0
   23.3834   90.2015   76.1175 O   0  0  0  0  0  0  0  0  0  0  0  0
   21.0011   89.9794   75.6313 C   0  0  2  0  0  0  0  0  0  0  0  0
   25.9558   91.7339   73.0795 C   0  0  0  0  0  0  0  0  0  0  0  0
   26.6847   90.5343   72.9224 N   0  0  0  0  0  0  0  0  0  0  0  0
   22.6430   93.0765   73.5084 O   0  0  0  0  0  0  0  0  0  0  0  0
   20.9529   89.9857   77.2183 C   0  0  0  0  0  0  0  0  0  0  0  0
   26.6579   92.7917   72.7896 O   0  0  0  0  0  0  0  0  0  0  0  0
   24.3764   93.6068   74.8119 N   0  0  0  0  0  0  0  0  0  0  0  0
   28.0274   90.6022   73.3050 C   0  0  0  0  0  0  0  0  0  0  0  0
   24.7710   89.4714   72.8563 C   0  0  0  0  0  0  0  0  0  0  0  0
   26.0841   89.3275   72.6595 C   0  0  0  0  0  0  0  0  0  0  0  0
  1  2  2  0
  3  2  1  1
  2  4  1  0
  3  5  1  0
  3  6  1  0
  7  5  1  6
  7  8  1  0
  7  9  1  0
  8 10  1  0
 10 11  1  6
  9 12  1  1
  6 13  1  0
  9 13  1  0
 10 14  1  0
 14 15  1  0
 11 16  2  0
 13 17  1  1
 14 18  2  0
 11 19  1  0
 15 20  1  0
  8 21  1  1
 15 22  1  0
 21 22  1  0
M  END
$$$$
89
     RDKit          3D

 22 25  0  0  0  0  0  0  0  0999 V2000
   24.8305   89.2476   72.7236 C   0  0  0  0  0  0  0  0  0  0  0  0
   23.8351   89.5653   73.3855 N   0  0  0  0  0  0  0  0  0  0  0  0
   25.8967   89.7559   73.0899 N   0  0  0  0  0  0  0  0  0  0  0  0
   26.2292   90.9444   73.5299 C   0  0  1  0  0  0  0  0  0  0  0  0
   23.7965   90.9006   73.9942 C   0  0  2  0  0  0  0  0  0  0  0  0
   25.0426   91.5645   74.0466 C   0  0  0  0  0  0  0  0  0  0  0  0
   24.9570   87.9474   72.0260 O   0  0  0  0  0  0  0  0  0  0  0  0
   27.3875   91.5742   73.6281 N   0  0  0  0  0  0  0  0  0  0  0  0
   25.3027   92.7018   74.5414 C   0  0  1  0  0  0  0  0  0  0  0  0
   22.5053   91.2205   74.5328 N   0  0  0  0  0  0  0  0  0  0  0  0
   26.4809   93.2791   74.4923 N   0  0  0  0  0  0  0  0  0  0  0  0
   27.5393   92.5771   74.0978 C   0  0  0  0  0  0  0  0  0  0  0  0
   22.5028   92.5038   75.0774 C   0  0  1  0  0  0  0  0  0  0  0  0
   23.9110   93.2644   74.8765 N   0  0  0  0  0  0  0  0  0  0  0  0
   21.5603   93.2231   75.4855 O   0  0  0  0  0  0  0  0  0  0  0  0
   21.3479   90.5616   74.6593 C   0  0  0  0  0  0  0  0  0  0  0  0
   21.3656   89.3578   73.8796 O   0  0  0  0  0  0  0  0  0  0  0  0
   20.3638   89.5012   72.9393 C   0  0  0  0  0  0  0  0  0  0  0  0
   20.6701   92.4238   76.0850 C   0  0  0  0  0  0  0  0  0  0  0  0
   20.4767   91.1617   75.5211 C   0  0  2  0  0  0  0  0  0  0  0  0
   19.4437   90.2285   75.9498 O   0  0  0  0  0  0  0  0  0  0  0  0
   20.0003   92.7236   77.1355 O   0  0  0  0  0  0  0  0  0  0  0  0
  1  2  1  0
  1  3  1  0
  4  3  1  1
  5  2  1  1
  4  6  1  0
  5  6  1  0
  1  7  2  0
  4  8  1  0
  6  9  1  0
  5 10  1  0
  9 11  1  6
  8 12  1  0
 11 12  1  0
 10 13  1  0
  9 14  1  0
 13 14  1  6
 13 15  1  0
 10 16  1  0
 16 17  1  0
 17 18  1  0
 15 19  1  0
 16 20  1  0
 19 20  1  0
 20 21  1  1
 19 22  2  0
M  END
$$$$
9
     RDKit          3D

 17 19  0  0  0  0  0  0  0  0999 V2000
   25.0507   89.7858   72.6233 C   0  0  0  0  0  0  0  0  0  0  0  0
   23.9819   89.8747   73.2938 N   0  0  0  0  0  0  0  0  0  0  0  0
   23.0210   88.9349   73.4104 C   0  0  0  0  0  0  0  0  0  0  0  0
   24.1702   91.0517   74.2268 C   0  0  1  0  0  0  0  0  0  0  0  0
   25.3770   88.5477   72.0443 O   0  0  0  0  0  0  0  0  0  0  0  0
   25.9996   90.8266   72.4714 N   0  0  0  0  0  0  0  0  0  0  0  0
   27.2453   90.6902   72.1245 C   0  0  0  0  0  0  0  0  0  0  0  0
   21.8643   89.7145   73.1318 O   0  0  0  0  0  0  0  0  0  0  0  0
   21.6255   90.8075   73.8697 C   0  0  0  0  0  0  0  0  0  0  0  0
   25.6341   91.5969   73.8538 C   0  0  0  0  0  0  0  0  0  0  0  0
   22.9700   91.9435   73.9192 C   0  0  1  0  0  0  0  0  0  0  0  0
   26.2349   92.6918   74.3238 C   0  0  0  0  0  0  0  0  0  0  0  0
   22.7775   93.2071   74.0491 C   0  0  0  0  0  0  0  0  0  0  0  0
   21.8691   93.6394   75.0968 O   0  0  0  0  0  0  0  0  0  0  0  0
   20.5880   91.3742   74.5458 O   0  0  0  0  0  0  0  0  0  0  0  0
   27.7575   92.7215   74.1034 C   0  0  0  0  0  0  0  0  0  0  0  0
   28.2103   91.6443   73.1080 C   0  0  0  0  0  0  0  0  0  0  0  0
  1  2  1  0
  2  3  1  0
  2  4  1  0
  1  5  2  0
  1  6  1  0
  6  7  1  0
  3  8  1  0
  8  9  1  0
  4 10  1  6
  6 10  1  0
  4 11  1  0
  9 11  1  0
 10 12  2  0
 11 13  1  1
 13 14  1  0
  9 15  2  0
 12 16  1  0
  7 17  1  0
 16 17  2  0
M  END
$$$$
90
     RDKit          3D

 22 25  0  0  0  0  0  0  0  0999 V2000
   25.3842   88.0564   72.8997 N   0  0  0  0  0  0  0  0  0  0  0  0
   25.1266   89.2695   72.9754 C   0  0  2  0  0  0  0  0  0  0  0  0
   26.1751   90.2621   72.9083 N   0  0  0  0  0  0  0  0  0  0  0  0
   26.2409   91.4274   73.5415 C   0  0  0  0  0  0  0  0  0  0  0  0
   23.9145   89.8014   73.4776 N   0  0  0  0  0  0  0  0  0  0  0  0
   24.9602   91.9819   73.9251 C   0  0  1  0  0  0  0  0  0  0  0  0
   23.8812   91.0657   73.9009 C   0  0  1  0  0  0  0  0  0  0  0  0
   24.7671   93.2410   74.5393 N   0  0  0  0  0  0  0  0  0  0  0  0
   23.6146   93.3555   74.9101 C   0  0  0  0  0  0  0  0  0  0  0  0
   22.6188   91.5054   74.2641 N   0  0  0  0  0  0  0  0  0  0  0  0
   22.5342   92.6481   74.8097 C   0  0  0  0  0  0  0  0  0  0  0  0
   27.3422   92.2347   73.4128 O   0  0  0  0  0  0  0  0  0  0  0  0
   21.3021   93.2010   75.2882 O   0  0  0  0  0  0  0  0  0  0  0  0
   21.4313   90.6499   74.1263 C   0  0  1  0  0  0  0  0  0  0  0  0
   21.5043   89.6387   73.2470 O   0  0  0  0  0  0  0  0  0  0  0  0
   20.5715   92.2555   75.9826 C   0  0  0  0  0  0  0  0  0  0  0  0
   19.6382   92.5944   76.6872 O   0  0  0  0  0  0  0  0  0  0  0  0
   20.9773   90.5492   75.5882 C   0  0  1  0  0  0  0  0  0  0  0  0
   19.7342   89.8322   75.7920 C   0  0  2  0  0  0  0  0  0  0  0  0
   19.9451   88.8255   76.9754 C   0  0  0  0  0  0  0  0  0  0  0  0
   19.4964   88.8889   74.6590 C   0  0  0  0  0  0  0  0  0  0  0  0
   20.2012   89.0236   73.5216 N   0  0  0  0  0  0  0  0  0  0  0  0
  2  1  1  1
  2  3  1  0
  3  4  1  0
  2  5  1  0
  4  6  1  0
  7  5  1  6
  6  7  1  0
  6  8  1  1
  8  9  1  0
  7 10  1  0
  9 11  1  0
 10 11  1  0
  4 12  2  0
 11 13  1  0
 10 14  1  0
 14 15  1  1
 13 16  1  0
 16 17  2  0
 14 18  1  0
 18 16  1  6
 18 19  1  0
 19 20  1  1
 19 21  1  0
 15 22  1  0
 21 22  1  0
M  END
$$$$
91
     RDKit          3D

 22 25  0  0  0  0  0  0  0  0999 V2000
   18.9553   88.9261   72.5594 O   0  0  0  0  0  0  0  0  0  0  0  0
   19.4859   89.3782   73.6161 C   0  0  0  0  0  0  0  0  0  0  0  0
   20.7633   89.7964   73.6172 N   0  0  0  0  0  0  0  0  0  0  0  0
   21.2683   90.3634   74.8710 C   0  0  2  0  0  0  0  0  0  0  0  0
   18.7850   89.5823   74.7441 C   0  0  2  0  0  0  0  0  0  0  0  0
   22.6296   90.8237   74.9058 C   0  0  1  0  0  0  0  0  0  0  0  0
   20.7294   90.2295   76.0338 N   0  0  0  0  0  0  0  0  0  0  0  0
   19.3335   89.8174   76.0141 C   0  0  1  0  0  0  0  0  0  0  0  0
   23.7071   90.2517   74.3155 C   0  0  0  0  0  0  0  0  0  0  0  0
   18.5922   89.8140   77.2189 C   0  0  0  0  0  0  0  0  0  0  0  0
   17.3220   89.1112   74.7096 C   0  0  0  0  0  0  0  0  0  0  0  0
   24.7903   91.1120   73.8617 C   0  0  1  0  0  0  0  0  0  0  0  0
   22.6748   92.1055   75.5809 C   0  0  0  0  0  0  0  0  0  0  0  0
   23.9704   92.8515   75.3747 C   0  0  0  0  0  0  0  0  0  0  0  0
   17.2498   89.4878   77.1461 C   0  0  0  0  0  0  0  0  0  0  0  0
   24.9385   92.3495   74.4953 C   0  0  1  0  0  0  0  0  0  0  0  0
   26.0889   90.4785   73.0390 C   0  0  1  0  0  0  0  0  0  0  0  0
   26.2069   92.8977   74.1405 N   0  0  0  0  0  0  0  0  0  0  0  0
   16.6507   89.3989   75.9018 C   0  0  0  0  0  0  0  0  0  0  0  0
   26.9954   91.5354   73.1532 C   0  0  0  0  0  0  0  0  0  0  0  0
   26.1925   89.2161   73.5895 O   0  0  0  0  0  0  0  0  0  0  0  0
   28.0416   91.7532   72.7165 O   0  0  0  0  0  0  0  0  0  0  0  0
  1  2  2  0
  2  3  1  0
  4  3  1  1
  2  5  1  0
  4  6  1  0
  4  7  1  0
  5  8  1  0
  7  8  1  0
  6  9  1  6
  8 10  1  6
  5 11  1  1
 12  9  1  1
  6 13  1  0
 13 14  1  0
 10 15  1  0
 12 16  1  0
 16 14  1  1
 12 17  1  0
 16 18  1  0
 11 19  1  0
 15 19  1  0
 17 20  1  0
 18 20  1  0
 17 21  1  1
 20 22  2  0
M  END
$$$$
92
     RDKit          3D

 22 24  0  0  0  0  0  0  0  0999 V2000
   18.9553   88.9261   72.5594 O   0  0  0  0  0  0  0  0  0  0  0  0
   19.4859   89.3782   73.6161 C   0  0  0  0  0  0  0  0  0  0  0  0
   20.7633   89.7964   73.6172 N   0  0  0  0  0  0  0  0  0  0  0  0
   21.2683   90.3634   74.8710 C   0  0  2  0  0  0  0  0  0  0  0  0
   18.7850   89.5823   74.7441 C   0  0  2  0  0  0  0  0  0  0  0  0
   22.6296   90.8237   74.9058 C   0  0  1  0  0  0  0  0  0  0  0  0
   20.7294   90.2295   76.0338 N   0  0  0  0  0  0  0  0  0  0  0  0
   19.3335   89.8174   76.0141 C   0  0  0  0  0  0  0  0  0  0  0  0
   23.7071   90.2517   74.3155 C   0  0  1  0  0  0  0  0  0  0  0  0
   23.8592   88.9534   73.9641 O   0  0  0  0  0  0  0  0  0  0  0  0
   24.6606   88.7198   72.9041 C   0  0  2  0  0  0  0  0  0  0  0  0
   24.6242   91.1185   73.9874 C   0  0  2  0  0  0  0  0  0  0  0  0
   22.6380   92.1538   75.5878 C   0  0  0  0  0  0  0  0  0  0  0  0
   21.6677   92.7306   76.3954 O   0  0  0  0  0  0  0  0  0  0  0  0
   23.7940   92.9806   75.3428 C   0  0  0  0  0  0  0  0  0  0  0  0
   18.6769   89.7436   77.1860 C   0  0  0  0  0  0  0  0  0  0  0  0
   25.4211   87.6771   72.9830 O   0  0  0  0  0  0  0  0  0  0  0  0
   25.8011   90.5269   73.1504 C   0  0  2  0  0  0  0  0  0  0  0  0
   24.8114   92.4167   74.5119 C   0  0  0  0  0  0  0  0  0  0  0  0
   25.4742   89.8113   72.3524 O   0  0  0  0  0  0  0  0  0  0  0  0
   17.3416   89.1042   74.7666 O   0  0  0  0  0  0  0  0  0  0  0  0
   26.8697   90.2370   74.0865 O   0  0  0  0  0  0  0  0  0  0  0  0
  1  2  2  0
  2  3  1  0
  4  3  1  1
  2  5  1  0
  4  6  1  0
  4  7  1  0
  5  8  1  0
  7  8  1  0
  6  9  1  0
  9 10  1  6
 10 11  1  0
  9 12  1  0
  6 13  1  6
 13 14  1  0
 13 15  1  0
  8 16  1  0
 11 17  1  1
 12 18  1  0
 12 19  1  1
 15 19  1  0
 11 20  1  0
 18 20  1  0
  5 21  1  1
 18 22  1  1
M  END
$$$$
93
     RDKit          3D

 22 22  0  0  0  0  0  0  0  0999 V2000
   19.1720   89.7260   71.4704 O   0  0  0  0  0  0  0  0  0  0  0  0
   19.0943   89.7112   72.6073 C   0  0  0  0  0  0  0  0  0  0  0  0
   20.2608   89.9192   73.3814 C   0  0  2  0  0  0  0  0  0  0  0  0
   17.9712   89.3770   73.3332 O   0  0  0  0  0  0  0  0  0  0  0  0
   21.5312   90.0129   73.0891 N   0  0  0  0  0  0  0  0  0  0  0  0
   19.9605   89.9656   74.8835 C   0  0  0  0  0  0  0  0  0  0  0  0
   22.5653   90.2178   73.8490 C   0  0  2  0  0  0  0  0  0  0  0  0
   23.9353   90.3698   73.2428 C   0  0  1  0  0  0  0  0  0  0  0  0
   22.5256   89.9280   75.1924 C   0  0  1  0  0  0  0  0  0  0  0  0
   24.5680   91.6621   73.5020 C   0  0  2  0  0  0  0  0  0  0  0  0
   23.7789   92.7366   73.9957 C   0  0  0  0  0  0  0  0  0  0  0  0
   23.3834   90.2015   76.1175 O   0  0  0  0  0  0  0  0  0  0  0  0
   21.0011   89.9794   75.6313 C   0  0  2  0  0  0  0  0  0  0  0  0
   25.9558   91.7339   73.0795 C   0  0  0  0  0  0  0  0  0  0  0  0
   26.6847   90.5343   72.9224 N   0  0  0  0  0  0  0  0  0  0  0  0
   22.6430   93.0765   73.5084 O   0  0  0  0  0  0  0  0  0  0  0  0
   20.9529   89.9857   77.2183 C   0  0  0  0  0  0  0  0  0  0  0  0
   26.6579   92.7917   72.7896 O   0  0  0  0  0  0  0  0  0  0  0  0
   24.3764   93.6068   74.8119 N   0  0  0  0  0  0  0  0  0  0  0  0
   28.0274   90.6022   73.3050 C   0  0  0  0  0  0  0  0  0  0  0  0
   24.3552   89.0071   73.2690 O   0  0  0  0  0  0  0  0  0  0  0  0
   28.4995   91.7597   74.0238 C   0  0  0  0  0  0  0  0  0  0  0  0
  1  2  2  0
  3  2  1  1
  2  4  1  0
  3  5  1  0
  3  6  1  0
  7  5  1  6
  7  8  1  0
  7  9  1  0
  8 10  1  0
 10 11  1  6
  9 12  1  1
  6 13  1  0
  9 13  1  0
 10 14  1  0
 14 15  1  0
 11 16  2  0
 13 17  1  1
 14 18  2  0
 11 19  1  0
 15 20  1  0
  8 21  1  1
 20 22  1  0
M  END
$$$$
94
     RDKit          3D

 22 24  0  0  0  0  0  0  0  0999 V2000
   24.8305   89.2476   72.7236 C   0  0  0  0  0  0  0  0  0  0  0  0
   23.8351   89.5653   73.3855 N   0  0  0  0  0  0  0  0  0  0  0  0
   25.8967   89.7559   73.0899 N   0  0  0  0  0  0  0  0  0  0  0  0
   26.2292   90.9444   73.5299 C   0  0  1  0  0  0  0  0  0  0  0  0
   23.7965   90.9006   73.9942 C   0  0  2  0  0  0  0  0  0  0  0  0
   25.0426   91.5645   74.0466 C   0  0  0  0  0  0  0  0  0  0  0  0
   24.9570   87.9474   72.0260 O   0  0  0  0  0  0  0  0  0  0  0  0
   27.3875   91.5742   73.6281 N   0  0  0  0  0  0  0  0  0  0  0  0
   25.3027   92.7018   74.5414 C   0  0  1  0  0  0  0  0  0  0  0  0
   22.5053   91.2205   74.5328 N   0  0  0  0  0  0  0  0  0  0  0  0
   26.4809   93.2791   74.4923 N   0  0  0  0  0  0  0  0  0  0  0  0
   27.5393   92.5771   74.0978 C   0  0  0  0  0  0  0  0  0  0  0  0
   22.5028   92.5038   75.0774 C   0  0  1  0  0  0  0  0  0  0  0  0
   23.9110   93.2644   74.8765 N   0  0  0  0  0  0  0  0  0  0  0  0
   21.5603   93.2231   75.4855 O   0  0  0  0  0  0  0  0  0  0  0  0
   21.3479   90.5616   74.6593 C   0  0  1  0  0  0  0  0  0  0  0  0
   21.3656   89.3578   73.8796 O   0  0  0  0  0  0  0  0  0  0  0  0
   21.3333   90.0137   76.0543 C   0  0  0  0  0  0  0  0  0  0  0  0
   22.2475   90.2393   76.8362 F   0  0  0  0  0  0  0  0  0  0  0  0
   20.2592   89.3193   73.0739 C   0  0  0  0  0  0  0  0  0  0  0  0
   20.1508   90.6573   76.7924 F   0  0  0  0  0  0  0  0  0  0  0  0
   20.5846   88.7803   75.9962 F   0  0  0  0  0  0  0  0  0  0  0  0
  1  2  1  0
  1  3  1  0
  4  3  1  1
  5  2  1  1
  4  6  1  0
  5  6  1  0
  1  7  2  0
  4  8  1  0
  6  9  1  0
  5 10  1  0
  9 11  1  6
  8 12  1  0
 11 12  1  0
 10 13  1  0
  9 14  1  0
 13 14  1  0
 13 15  1  6
 10 16  1  0
 16 17  1  6
 16 18  1  0
 18 19  1  0
 17 20  1  0
 18 21  1  0
 18 22  1  0
M  END
$$$$
95
     RDKit          3D

 22 25  0  0  0  0  0  0  0  0999 V2000
   21.0692   93.5042   75.4357 C   0  0  0  0  0  0  0  0  0  0  0  0
   20.7887   92.6296   76.4947 C   0  0  0  0  0  0  0  0  0  0  0  0
   21.5626   91.4080   76.6344 C   0  0  0  0  0  0  0  0  0  0  0  0
   22.5698   91.1743   75.6480 C   0  0  0  0  0  0  0  0  0  0  0  0
   21.3121   90.4214   77.7342 C   0  0  0  0  0  0  0  0  0  0  0  0
   22.1618   93.1514   74.6355 C   0  0  0  0  0  0  0  0  0  0  0  0
   22.8640   91.9933   74.7012 C   0  0  0  0  0  0  0  0  0  0  0  0
   19.9796   89.9268   77.7048 C   0  0  0  0  0  0  0  0  0  0  0  0
   23.9865   91.8372   73.6459 C   0  0  1  0  0  0  0  0  0  0  0  0
   24.9995   92.6379   73.5868 N   0  0  0  0  0  0  0  0  0  0  0  0
   26.3008   92.3426   73.6956 C   0  0  1  0  0  0  0  0  0  0  0  0
   24.3541   90.3689   73.5676 C   0  0  2  0  0  0  0  0  0  0  0  0
   25.5885   90.0214   73.1178 C   0  0  1  0  0  0  0  0  0  0  0  0
   23.1764   89.2766   73.0598 C   0  0  0  0  0  0  0  0  0  0  0  0
   21.9891   89.9237   72.7378 O   0  0  0  0  0  0  0  0  0  0  0  0
   26.6535   90.9608   73.3508 C   0  0  2  0  0  0  0  0  0  0  0  0
   27.3567   93.3411   73.8710 C   0  0  0  0  0  0  0  0  0  0  0  0
   25.6561   88.6484   73.1848 N   0  0  0  0  0  0  0  0  0  0  0  0
   28.4378   92.8474   74.2403 C   0  0  0  0  0  0  0  0  0  0  0  0
   24.2902   88.2206   72.9224 C   0  0  0  0  0  0  0  0  0  0  0  0
   28.0003   90.5597   73.5064 C   0  0  0  0  0  0  0  0  0  0  0  0
   28.9585   91.5712   73.8633 C   0  0  0  0  0  0  0  0  0  0  0  0
  1  2  1  0
  2  3  1  0
  3  4  1  0
  3  5  1  0
  1  6  1  0
  4  7  1  0
  6  7  1  0
  5  8  1  0
  9  7  1  1
  9 10  1  0
 10 11  1  0
  9 12  1  0
 12 13  1  0
 12 14  1  6
 14 15  2  0
 11 16  1  0
 13 16  1  0
 11 17  1  6
 13 18  1  1
 17 19  1  0
 14 20  1  0
 18 20  1  0
 16 21  1  1
 19 22  1  0
 21 22  1  0
M  END
$$$$
96
     RDKit          3D

 22 24  0  0  0  0  0  0  0  0999 V2000
   24.8305   89.2476   72.7236 C   0  0  0  0  0  0  0  0  0  0  0  0
   23.8351   89.5653   73.3855 N   0  0  0  0  0  0  0  0  0  0  0  0
   25.8967   89.7559   73.0899 N   0  0  0  0  0  0  0  0  0  0  0  0
   26.2292   90.9444   73.5299 C   0  0  1  0  0  0  0  0  0  0  0  0
   23.7965   90.9006   73.9942 C   0  0  2  0  0  0  0  0  0  0  0  0
   25.0426   91.5645   74.0466 C   0  0  0  0  0  0  0  0  0  0  0  0
   24.9570   87.9474   72.0260 O   0  0  0  0  0  0  0  0  0  0  0  0
   27.3875   91.5742   73.6281 N   0  0  0  0  0  0  0  0  0  0  0  0
   25.3027   92.7018   74.5414 C   0  0  1  0  0  0  0  0  0  0  0  0
   22.5053   91.2205   74.5328 N   0  0  0  0  0  0  0  0  0  0  0  0
   26.4809   93.2791   74.4923 N   0  0  0  0  0  0  0  0  0  0  0  0
   27.5393   92.5771   74.0978 C   0  0  0  0  0  0  0  0  0  0  0  0
   22.5028   92.5038   75.0774 C   0  0  0  0  0  0  0  0  0  0  0  0
   23.8960   93.3141   75.0369 N   0  0  0  0  0  0  0  0  0  0  0  0
   21.5350   90.5783   74.8925 C   0  0  1  0  0  0  0  0  0  0  0  0
   21.5575   93.0810   75.6444 O   0  0  0  0  0  0  0  0  0  0  0  0
   21.0590   89.7247   73.8298 C   0  0  0  0  0  0  0  0  0  0  0  0
   19.7543   90.2869   73.1679 C   0  0  0  0  0  0  0  0  0  0  0  0
   18.7794   90.4444   73.8507 O   0  0  0  0  0  0  0  0  0  0  0  0
   19.3795   89.1719   72.0011 O   0  0  0  0  0  0  0  0  0  0  0  0
   21.9014   89.5423   75.9386 C   0  0  0  0  0  0  0  0  0  0  0  0
   21.0145   89.7883   77.2096 C   0  0  0  0  0  0  0  0  0  0  0  0
  1  2  1  0
  1  3  1  0
  4  3  1  1
  5  2  1  1
  4  6  1  0
  5  6  1  0
  1  7  2  0
  4  8  1  0
  6  9  1  0
  5 10  1  0
  9 11  1  6
  8 12  1  0
 11 12  1  0
 10 13  1  0
  9 14  1  0
 13 14  1  0
 10 15  1  0
 13 16  2  0
 15 17  1  6
 17 18  1  0
 18 19  1  0
 18 20  1  0
 15 21  1  0
 21 22  1  0
M  END
$$$$
97
     RDKit          3D

 22 24  0  0  0  0  0  0  0  0999 V2000
   24.8305   89.2476   72.7236 C   0  0  0  0  0  0  0  0  0  0  0  0
   23.8351   89.5653   73.3855 N   0  0  0  0  0  0  0  0  0  0  0  0
   25.8967   89.7559   73.0899 N   0  0  0  0  0  0  0  0  0  0  0  0
   26.2292   90.9444   73.5299 C   0  0  1  0  0  0  0  0  0  0  0  0
   23.7965   90.9006   73.9942 C   0  0  2  0  0  0  0  0  0  0  0  0
   25.0426   91.5645   74.0466 C   0  0  0  0  0  0  0  0  0  0  0  0
   24.9570   87.9474   72.0260 O   0  0  0  0  0  0  0  0  0  0  0  0
   27.3875   91.5742   73.6281 N   0  0  0  0  0  0  0  0  0  0  0  0
   25.3027   92.7018   74.5414 C   0  0  1  0  0  0  0  0  0  0  0  0
   22.5053   91.2205   74.5328 N   0  0  0  0  0  0  0  0  0  0  0  0
   26.4809   93.2791   74.4923 N   0  0  0  0  0  0  0  0  0  0  0  0
   27.5393   92.5771   74.0978 C   0  0  0  0  0  0  0  0  0  0  0  0
   22.5028   92.5038   75.0774 C   0  0  0  0  0  0  0  0  0  0  0  0
   23.8960   93.3141   75.0369 N   0  0  0  0  0  0  0  0  0  0  0  0
   21.5350   90.5783   74.8925 C   0  0  1  0  0  0  0  0  0  0  0  0
   21.5575   93.0810   75.6444 O   0  0  0  0  0  0  0  0  0  0  0  0
   21.0590   89.7247   73.8298 C   0  0  0  0  0  0  0  0  0  0  0  0
   19.7543   90.2869   73.1679 C   0  0  0  0  0  0  0  0  0  0  0  0
   18.7794   90.4444   73.8507 O   0  0  0  0  0  0  0  0  0  0  0  0
   21.9771   89.6265   75.9932 C   0  0  0  0  0  0  0  0  0  0  0  0
   20.8392   89.3934   77.0457 C   0  0  0  0  0  0  0  0  0  0  0  0
   19.7781   90.5046   71.8048 O   0  0  0  0  0  0  0  0  0  0  0  0
  1  2  1  0
  1  3  1  0
  4  3  1  1
  5  2  1  1
  4  6  1  0
  5  6  1  0
  1  7  2  0
  4  8  1  0
  6  9  1  0
  5 10  1  0
  9 11  1  6
  8 12  1  0
 11 12  1  0
 10 13  1  0
  9 14  1  0
 13 14  1  0
 10 15  1  0
 13 16  2  0
 15 17  1  6
 17 18  1  0
 18 19  1  0
 15 20  1  0
 20 21  1  0
 18 22  2  0
M  END
$$$$
98
     RDKit          3D

 22 24  0  0  0  0  0  0  0  0999 V2000
   19.1816   89.6083   72.0600 C   0  0  0  0  0  0  0  0  0  0  0  0
   20.0343   89.8874   73.1185 C   0  0  2  0  0  0  0  0  0  0  0  0
   19.4305   89.7913   70.9391 O   0  0  0  0  0  0  0  0  0  0  0  0
   17.8466   89.3605   72.4228 O   0  0  0  0  0  0  0  0  0  0  0  0
   21.3715   90.0741   72.9816 N   0  0  0  0  0  0  0  0  0  0  0  0
   19.4936   89.8981   74.3937 C   0  0  0  0  0  0  0  0  0  0  0  0
   22.2550   90.3208   73.8331 C   0  0  1  0  0  0  0  0  0  0  0  0
   21.8420   90.3259   75.1656 C   0  0  1  0  0  0  0  0  0  0  0  0
   20.4311   90.0980   75.4512 C   0  0  1  0  0  0  0  0  0  0  0  0
   19.9847   90.2349   76.8307 C   0  0  0  0  0  0  0  0  0  0  0  0
   20.8474   90.7178   77.8402 C   0  0  0  0  0  0  0  0  0  0  0  0
   22.8655   90.5105   76.2808 C   0  0  0  0  0  0  0  0  0  0  0  0
   23.7137   90.4840   73.3104 C   0  0  1  0  0  0  0  0  0  0  0  0
   24.2581   91.7220   73.3275 C   0  0  0  0  0  0  0  0  0  0  0  0
   25.6675   91.7522   73.0656 C   0  0  0  0  0  0  0  0  0  0  0  0
   22.2669   90.7363   77.5397 C   0  0  0  0  0  0  0  0  0  0  0  0
   26.3144   90.6007   72.7977 C   0  0  2  0  0  0  0  0  0  0  0  0
   24.4484   89.3468   72.8955 C   0  0  0  0  0  0  0  0  0  0  0  0
   25.7399   89.4887   72.8785 N   0  0  0  0  0  0  0  0  0  0  0  0
   27.8415   90.7750   72.6371 C   0  0  0  0  0  0  0  0  0  0  0  0
   28.5571   91.3614   73.7391 C   0  0  0  0  0  0  0  0  0  0  0  0
   27.8331   91.9029   74.8272 C   0  0  0  0  0  0  0  0  0  0  0  0
  2  1  1  1
  1  3  2  0
  1  4  1  0
  2  5  1  0
  2  6  1  0
  7  5  1  1
  7  8  1  0
  9  6  1  6
  8  9  1  0
  9 10  1  0
 10 11  1  0
  8 12  1  1
  7 13  1  0
 13 14  1  1
 14 15  1  0
 11 16  1  0
 12 16  1  0
 15 17  1  0
 13 18  1  0
 17 19  1  0
 18 19  1  0
 17 20  1  1
 20 21  1  0
 21 22  1  0
M  END
$$$$
99
     RDKit          3D

 22 23  0  0  0  0  0  0  0  0999 V2000
   18.3705   88.4740   74.3376 C   0  0  0  0  0  0  0  0  0  0  0  0
   18.9449   88.9259   73.1725 C   0  0  2  0  0  0  0  0  0  0  0  0
   20.1490   89.6096   73.3069 C   0  0  0  0  0  0  0  0  0  0  0  0
   20.5978   89.7677   74.3544 C   0  0  0  0  0  0  0  0  0  0  0  0
   21.9423   90.5725   74.4951 C   0  0  1  0  0  0  0  0  0  0  0  0
   20.0980   89.2908   75.6579 C   0  0  2  0  0  0  0  0  0  0  0  0
   18.9098   88.6437   75.5373 C   0  0  0  0  0  0  0  0  0  0  0  0
   20.8332   89.5799   76.9162 C   0  0  0  0  0  0  0  0  0  0  0  0
   20.1039   89.7497   77.9421 O   0  0  0  0  0  0  0  0  0  0  0  0
   18.2723   88.7722   71.9587 O   0  0  0  0  0  0  0  0  0  0  0  0
   22.2046   89.6883   76.9296 C   0  0  0  0  0  0  0  0  0  0  0  0
   22.4556   91.0857   73.3404 C   0  0  0  0  0  0  0  0  0  0  0  0
   21.8823   91.6600   75.3831 O   0  0  0  0  0  0  0  0  0  0  0  0
   22.9043   89.6955   75.4399 C   0  0  0  0  0  0  0  0  0  0  0  0
   23.6929   90.9436   72.9992 N   0  0  0  0  0  0  0  0  0  0  0  0
   24.8113   91.5309   73.6167 C   0  0  0  0  0  0  0  0  0  0  0  0
   24.7569   92.5023   74.2763 O   0  0  0  0  0  0  0  0  0  0  0  0
   26.0887   90.7713   73.3712 C   0  0  2  0  0  0  0  0  0  0  0  0
   26.0625   89.5291   72.9352 O   0  0  0  0  0  0  0  0  0  0  0  0
   27.2641   91.3321   73.6884 C   0  0  0  0  0  0  0  0  0  0  0  0
   27.4879   92.4085   74.4937 O   0  0  0  0  0  0  0  0  0  0  0  0
   28.2792   90.6981   73.2445 O   0  0  0  0  0  0  0  0  0  0  0  0
  1  2  1  0
  2  3  1  0
  3  4  1  0
  4  5  1  0
  4  6  1  0
  1  7  1  0
  6  7  1  1
  6  8  1  0
  8  9  2  0
  2 10  1  1
  8 11  1  0
  5 12  1  0
  5 13  1  1
  5 14  1  0
 11 14  1  0
 12 15  1  0
 15 16  1  0
 16 17  2  0
 16 18  1  0
 18 19  1  1
 18 20  1  0
 20 21  1  0
 20 22  2  0
M  END
$$$$
