0
     RDKit          3D

  8  8  0  0  0  0  0  0  0  0999 V2000
   19.9618   13.0605    2.1665 C   0  0  0  0  0  0  0  0  0  0  0  0
   20.4820   11.9823    1.9071 C   0  0  2  0  0  0  0  0  0  0  0  0
   20.3940   11.2038    0.7419 C   0  0  0  0  0  0  0  0  0  0  0  0
   20.1889   13.9148    3.2764 C   0  0  0  0  0  0  0  0  0  0  0  0
   20.8764    9.9086    0.9035 C   0  0  0  0  0  0  0  0  0  0  0  0
   21.2244    9.4829    2.1509 C   0  0  0  0  0  0  0  0  0  0  0  0
   20.9296   10.7155    2.9859 C   0  0  1  0  0  0  0  0  0  0  0  0
   21.1165   10.9059    4.3375 C   0  0  0  0  0  0  0  0  0  0  0  0
  2  1  1  1
  2  3  1  0
  1  4  1  0
  3  5  1  0
  5  6  1  0
  2  7  1  0
  6  7  1  0
  7  8  1  6
M  END
$$$$
1
     RDKit          3D

  8  8  0  0  0  0  0  0  0  0999 V2000
   20.2373   10.2958    3.6276 C   0  0  0  0  0  0  0  0  0  0  0  0
   19.8246    9.5252    2.7571 C   0  0  0  0  0  0  0  0  0  0  0  0
   19.9425    9.5699    1.5337 C   0  0  0  0  0  0  0  0  0  0  0  0
   21.0645   11.3286    3.3101 C   0  0  0  0  0  0  0  0  0  0  0  0
   20.6691   10.6533    1.0647 C   0  0  0  0  0  0  0  0  0  0  0  0
   21.2419   11.5030    1.8981 C   0  0  0  0  0  0  0  0  0  0  0  0
   21.7437   12.2886    4.3727 C   0  0  0  0  0  0  0  0  0  0  0  0
   21.3623   13.7003    4.1766 C   0  0  0  0  0  0  0  0  0  0  0  0
  1  2  1  0
  2  3  1  0
  1  4  1  0
  3  5  1  0
  4  6  1  0
  5  6  1  0
  4  7  1  0
  7  8  1  0
M  END
$$$$
10
     RDKit          3D

 11 12  0  0  0  0  0  0  0  0999 V2000
   20.4419   12.5930    1.7177 C   0  0  0  0  0  0  0  0  0  0  0  0
   20.3681   13.3210    2.7035 C   0  0  1  0  0  0  0  0  0  0  0  0
   21.2006   13.2721    3.6109 C   0  0  0  0  0  0  0  0  0  0  0  0
   22.1762   12.3411    3.7476 C   0  0  0  0  0  0  0  0  0  0  0  0
   22.2898   11.4452    2.6778 C   0  0  0  0  0  0  0  0  0  0  0  0
   23.2579   10.3733    2.5979 C   0  0  0  0  0  0  0  0  0  0  0  0
   19.3707   14.4117    2.7383 F   0  0  0  0  0  0  0  0  0  0  0  0
   23.0186    9.3642    1.6950 C   0  0  0  0  0  0  0  0  0  0  0  0
   21.3543   11.5732    1.5752 C   0  0  1  0  0  0  0  0  0  0  0  0
   22.0951    9.3548    0.7149 C   0  0  0  0  0  0  0  0  0  0  0  0
   21.2509   10.4266    0.7930 C   0  0  0  0  0  0  0  0  0  0  0  0
  1  2  1  0
  2  3  1  0
  3  4  1  0
  4  5  1  0
  5  6  1  0
  2  7  1  6
  6  8  1  0
  9  1  1  1
  5  9  1  0
  8 10  1  0
  9 11  1  0
 10 11  1  0
M  END
$$$$
11
     RDKit          3D

 12 12  0  0  0  0  0  0  0  0999 V2000
   19.7675   12.7267    1.7986 O   0  0  0  0  0  0  0  0  0  0  0  0
   20.3830   13.2069    2.6641 C   0  0  0  0  0  0  0  0  0  0  0  0
   19.9371   14.0795    3.5924 O   0  0  0  0  0  0  0  0  0  0  0  0
   21.8814   12.8836    2.6825 C   0  0  1  0  0  0  0  0  0  0  0  0
   22.4564   12.1953    1.5874 C   0  0  0  0  0  0  0  0  0  0  0  0
   22.6352   13.3299    3.6546 C   0  0  0  0  0  0  0  0  0  0  0  0
   23.8630   11.8823    1.7358 C   0  0  2  0  0  0  0  0  0  0  0  0
   24.5360   11.0813    0.6090 C   0  0  0  0  0  0  0  0  0  0  0  0
   24.4695   12.1132    2.9052 C   0  0  0  0  0  0  0  0  0  0  0  0
   25.7335   11.2042    0.4825 O   0  0  0  0  0  0  0  0  0  0  0  0
   23.8733   12.8239    3.8081 C   0  0  0  0  0  0  0  0  0  0  0  0
   24.0197   10.0696   -0.0015 O   0  0  0  0  0  0  0  0  0  0  0  0
  1  2  2  0
  2  3  1  0
  4  2  1  6
  4  5  1  0
  4  6  1  0
  5  7  1  0
  7  8  1  1
  7  9  1  0
  8 10  1  0
  6 11  1  0
  9 11  1  0
  8 12  2  0
M  END
$$$$
12
     RDKit          3D

 12 13  0  0  0  0  0  0  0  0999 V2000
   20.0029   12.5200    1.5151 C   0  0  0  0  0  0  0  0  0  0  0  0
   20.2135   13.2820    2.5337 C   0  0  0  0  0  0  0  0  0  0  0  0
   21.1980   13.0336    3.3092 C   0  0  2  0  0  0  0  0  0  0  0  0
   21.5644   13.9831    4.4546 C   0  0  0  0  0  0  0  0  0  0  0  0
   22.0206   11.8986    3.0611 C   0  0  0  0  0  0  0  0  0  0  0  0
   21.6781   11.0523    2.0339 C   0  0  0  0  0  0  0  0  0  0  0  0
   20.5480   11.4026    1.2163 C   0  0  0  0  0  0  0  0  0  0  0  0
   22.4226    9.7828    1.7719 C   0  0  0  0  0  0  0  0  0  0  0  0
   23.7329    9.7608    1.9403 C   0  0  0  0  0  0  0  0  0  0  0  0
   22.1748    8.9543    0.5680 C   0  0  0  0  0  0  0  0  0  0  0  0
   24.3991    8.6017    1.4898 C   0  0  0  0  0  0  0  0  0  0  0  0
   23.3231    8.0330    0.5421 C   0  0  0  0  0  0  0  0  0  0  0  0
  1  2  1  0
  2  3  1  0
  3  4  1  6
  3  5  1  0
  5  6  1  0
  1  7  1  0
  6  7  1  0
  6  8  1  0
  8  9  1  0
  8 10  1  0
  9 11  1  0
 10 12  1  0
 11 12  1  0
M  END
$$$$
13
     RDKit          3D

 13 14  0  0  0  0  0  0  0  0999 V2000
   19.6036   11.9133    1.6517 C   0  0  2  0  0  0  0  0  0  0  0  0
   20.1045   10.7312    2.0736 C   0  0  1  0  0  0  0  0  0  0  0  0
   19.6560    9.5347    1.4495 N   0  0  0  0  0  0  0  0  0  0  0  0
   21.0769   10.5467    3.0157 C   0  0  0  0  0  0  0  0  0  0  0  0
   21.5032   11.4935    3.5275 C   0  0  0  0  0  0  0  0  0  0  0  0
   18.7153   12.0613    0.6538 F   0  0  0  0  0  0  0  0  0  0  0  0
   21.1162   12.9045    3.2012 C   0  0  2  0  0  0  0  0  0  0  0  0
   21.6512   14.0150    3.9378 F   0  0  0  0  0  0  0  0  0  0  0  0
   20.4379    8.4751    1.3059 C   0  0  0  0  0  0  0  0  0  0  0  0
   20.1576   13.0601    2.2957 C   0  0  0  0  0  0  0  0  0  0  0  0
   21.5155    9.1709    3.3257 C   0  0  0  0  0  0  0  0  0  0  0  0
   19.9483    7.4335    0.5980 O   0  0  0  0  0  0  0  0  0  0  0  0
   21.2508    8.4292    2.2641 C   0  0  0  0  0  0  0  0  0  0  0  0
  1  2  1  0
  2  3  1  6
  2  4  1  0
  4  5  1  0
  1  6  1  6
  5  7  1  0
  7  8  1  1
  3  9  1  0
  1 10  1  0
  7 10  1  0
  4 11  1  0
  9 12  2  0
  9 13  1  0
 11 13  1  0
M  END
$$$$
14
     RDKit          3D

 13 14  0  0  0  0  0  0  0  0999 V2000
   20.4419   12.5930    1.7177 C   0  0  0  0  0  0  0  0  0  0  0  0
   20.3681   13.3210    2.7035 C   0  0  1  0  0  0  0  0  0  0  0  0
   21.2006   13.2721    3.6109 C   0  0  0  0  0  0  0  0  0  0  0  0
   22.1762   12.3411    3.7476 C   0  0  0  0  0  0  0  0  0  0  0  0
   22.2898   11.4452    2.6778 C   0  0  1  0  0  0  0  0  0  0  0  0
   23.2579   10.3733    2.5979 C   0  0  0  0  0  0  0  0  0  0  0  0
   19.2857   14.5764    2.7605 F   0  0  0  0  0  0  0  0  0  0  0  0
   21.3234   11.4587    1.5829 C   0  0  2  0  0  0  0  0  0  0  0  0
   21.3762   10.5309    0.5096 C   0  0  0  0  0  0  0  0  0  0  0  0
   24.3222   10.4066    3.4838 O   0  0  0  0  0  0  0  0  0  0  0  0
   23.3788    9.3965    1.6220 N   0  0  0  0  0  0  0  0  0  0  0  0
   22.5368    9.3719    0.6702 C   0  0  0  0  0  0  0  0  0  0  0  0
   22.7378    8.6786   -0.3342 O   0  0  0  0  0  0  0  0  0  0  0  0
  1  2  1  0
  2  3  1  0
  3  4  1  0
  5  4  1  1
  5  6  1  0
  2  7  1  6
  8  1  1  6
  5  8  1  0
  8  9  1  0
  6 10  2  0
  6 11  1  0
  9 12  1  0
 11 12  1  0
 12 13  2  0
M  END
$$$$
15
     RDKit          3D

 13 14  0  0  0  0  0  0  0  0999 V2000
   19.9063   13.3042    2.0507 O   0  0  0  0  0  0  0  0  0  0  0  0
   20.4616   12.6394    2.6260 C   0  0  0  0  0  0  0  0  0  0  0  0
   20.5990   11.2403    2.3535 N   0  0  0  0  0  0  0  0  0  0  0  0
   19.9024   10.6807    1.1884 C   0  0  0  0  0  0  0  0  0  0  0  0
   21.3215   12.9653    3.8216 C   0  0  0  0  0  0  0  0  0  0  0  0
   21.5297   10.3760    2.9410 C   0  0  1  0  0  0  0  0  0  0  0  0
   22.2370   10.8687    4.1280 C   0  0  0  0  0  0  0  0  0  0  0  0
   22.5118   12.3305    4.1203 C   0  0  0  0  0  0  0  0  0  0  0  0
   21.5749    9.1093    2.4261 C   0  0  0  0  0  0  0  0  0  0  0  0
   20.3153    9.0941    1.4489 C   0  0  1  0  0  0  0  0  0  0  0  0
   19.1564    8.4557    2.0226 C   0  0  0  0  0  0  0  0  0  0  0  0
   18.0357    8.8863    2.1113 O   0  0  0  0  0  0  0  0  0  0  0  0
   19.2734    7.0935    2.2585 O   0  0  0  0  0  0  0  0  0  0  0  0
  1  2  2  0
  2  3  1  0
  3  4  1  0
  2  5  1  0
  3  6  1  0
  6  7  1  1
  5  8  1  0
  7  8  1  0
  6  9  1  0
  4 10  1  0
  9 10  1  0
 10 11  1  1
 11 12  2  0
 11 13  1  0
M  END
$$$$
16
     RDKit          3D

 13 14  0  0  0  0  0  0  0  0999 V2000
   20.4601   13.7756    3.6865 C   0  0  0  0  0  0  0  0  0  0  0  0
   21.5224   12.9237    4.0049 C   0  0  0  0  0  0  0  0  0  0  0  0
   22.0326   12.1435    3.2237 C   0  0  1  0  0  0  0  0  0  0  0  0
   23.1805   11.2539    3.4430 C   0  0  0  0  0  0  0  0  0  0  0  0
   21.4372   11.8981    1.7971 C   0  0  1  0  0  0  0  0  0  0  0  0
   22.0600   10.8759    0.8414 C   0  0  0  0  0  0  0  0  0  0  0  0
   23.7562   10.3069    2.5826 C   0  0  0  0  0  0  0  0  0  0  0  0
   23.2108   10.2059    1.3642 C   0  0  1  0  0  0  0  0  0  0  0  0
   20.2381   12.5285    1.3326 C   0  0  0  0  0  0  0  0  0  0  0  0
   23.7376    9.1027    0.4473 C   0  0  0  0  0  0  0  0  0  0  0  0
   22.9452    8.8931   -0.6631 O   0  0  0  0  0  0  0  0  0  0  0  0
   19.7535   13.5454    2.4008 C   0  0  0  0  0  0  0  0  0  0  0  0
   24.5608    8.2769    0.7017 O   0  0  0  0  0  0  0  0  0  0  0  0
  1  2  1  0
  3  2  1  1
  3  4  1  0
  3  5  1  0
  5  6  1  1
  4  7  1  0
  6  8  1  0
  7  8  1  0
  5  9  1  0
  8 10  1  1
 10 11  2  0
  1 12  1  0
  9 12  1  0
 10 13  1  0
M  END
$$$$
17
     RDKit          3D

 13 14  0  0  0  0  0  0  0  0999 V2000
   20.4601   13.7756    3.6865 C   0  0  0  0  0  0  0  0  0  0  0  0
   21.5224   12.9237    4.0049 C   0  0  0  0  0  0  0  0  0  0  0  0
   22.0326   12.1435    3.2237 C   0  0  1  0  0  0  0  0  0  0  0  0
   23.1805   11.2539    3.4430 C   0  0  0  0  0  0  0  0  0  0  0  0
   21.4372   11.8981    1.7971 C   0  0  0  0  0  0  0  0  0  0  0  0
   22.0600   10.8759    0.8414 C   0  0  1  0  0  0  0  0  0  0  0  0
   23.1874   10.1508    1.3239 C   0  0  0  0  0  0  0  0  0  0  0  0
   19.8878   13.6513    2.3983 C   0  0  0  0  0  0  0  0  0  0  0  0
   20.3607   12.6309    1.4654 C   0  0  0  0  0  0  0  0  0  0  0  0
   23.8977   11.6480    4.4905 O   0  0  0  0  0  0  0  0  0  0  0  0
   23.7552   10.3891    2.5843 N   0  0  0  0  0  0  0  0  0  0  0  0
   23.4617    9.1835    0.4094 O   0  0  0  0  0  0  0  0  0  0  0  0
   21.4162   10.6916   -0.3827 O   0  0  0  0  0  0  0  0  0  0  0  0
  1  2  1  0
  3  2  1  1
  3  4  1  0
  3  5  1  0
  5  6  1  0
  6  7  1  0
  1  8  1  0
  5  9  1  0
  8  9  1  0
  4 10  2  0
  4 11  1  0
  7 11  1  0
  7 12  2  0
  6 13  1  1
M  END
$$$$
18
     RDKit          3D

 13 14  0  0  0  0  0  0  0  0999 V2000
   19.7675   12.7267    1.7986 C   0  0  0  0  0  0  0  0  0  0  0  0
   20.3237   11.5430    1.7679 C   0  0  1  0  0  0  0  0  0  0  0  0
   20.2661   13.5642    2.7080 C   0  0  0  0  0  0  0  0  0  0  0  0
   21.3158   11.0728    2.5537 C   0  0  1  0  0  0  0  0  0  0  0  0
   19.6931   10.2790    0.8831 C   0  0  0  0  0  0  0  0  0  0  0  0
   20.1024    9.0092    1.3098 C   0  0  2  0  0  0  0  0  0  0  0  0
   21.7301    9.6780    2.5133 C   0  0  0  0  0  0  0  0  0  0  0  0
   22.1604   11.8325    3.4860 C   0  0  0  0  0  0  0  0  0  0  0  0
   21.1310    8.8106    1.8675 C   0  0  0  0  0  0  0  0  0  0  0  0
   19.7485   14.7990    2.9440 O   0  0  0  0  0  0  0  0  0  0  0  0
   19.1775    8.0146    0.6403 O   0  0  0  0  0  0  0  0  0  0  0  0
   21.4379   13.2483    3.4973 C   0  0  0  0  0  0  0  0  0  0  0  0
   18.1266    7.4666    1.5339 C   0  0  0  0  0  0  0  0  0  0  0  0
  2  1  1  1
  1  3  1  0
  2  4  1  0
  2  5  1  0
  5  6  1  0
  4  7  1  6
  4  8  1  0
  6  9  1  0
  7  9  1  0
  3 10  1  0
  6 11  1  6
  3 12  1  0
  8 12  1  0
 11 13  1  0
M  END
$$$$
19
     RDKit          3D

 14 15  0  0  0  0  0  0  0  0999 V2000
   19.8103   13.4389    2.4076 C   0  0  0  0  0  0  0  0  0  0  0  0
   20.6329   13.7965    3.4616 C   0  0  0  0  0  0  0  0  0  0  0  0
   20.2988   12.5255    1.5312 C   0  0  0  0  0  0  0  0  0  0  0  0
   21.7482   12.9526    3.6236 C   0  0  0  0  0  0  0  0  0  0  0  0
   22.1994   12.0708    2.7332 C   0  0  0  0  0  0  0  0  0  0  0  0
   23.4485   11.3403    2.8721 C   0  0  2  0  0  0  0  0  0  0  0  0
   21.4341   11.8337    1.6404 C   0  0  1  0  0  0  0  0  0  0  0  0
   24.2981   11.6361    3.9340 O   0  0  0  0  0  0  0  0  0  0  0  0
   21.8253   10.7888    0.6609 C   0  0  0  0  0  0  0  0  0  0  0  0
   23.0944   10.1447    0.9284 C   0  0  0  0  0  0  0  0  0  0  0  0
   25.5292   12.2499    3.6181 C   0  0  0  0  0  0  0  0  0  0  0  0
   23.9456   10.4589    2.0257 C   0  0  0  0  0  0  0  0  0  0  0  0
   23.3731    9.0931   -0.0462 O   0  0  0  0  0  0  0  0  0  0  0  0
   23.1669    7.8590    0.0778 C   0  0  0  0  0  0  0  0  0  0  0  0
  1  2  1  0
  1  3  1  0
  2  4  1  0
  4  5  1  0
  5  6  1  0
  7  3  1  1
  5  7  1  0
  6  8  1  6
  7  9  1  0
  9 10  1  0
  8 11  1  0
  6 12  1  0
 10 12  1  0
 10 13  1  0
 13 14  1  0
M  END
$$$$
2
     RDKit          3D

  9  9  0  0  0  0  0  0  0  0999 V2000
   23.5534   11.4426    3.9595 C   0  0  0  0  0  0  0  0  0  0  0  0
   22.3523   11.5610    3.9625 C   0  0  0  0  0  0  0  0  0  0  0  0
   21.6148   12.4491    3.4979 C   0  0  1  0  0  0  0  0  0  0  0  0
   22.2918   13.3511    2.5256 C   0  0  0  0  0  0  0  0  0  0  0  0
   24.3692   12.2681    3.0908 C   0  0  1  0  0  0  0  0  0  0  0  0
   23.6661   13.2222    2.3974 C   0  0  0  0  0  0  0  0  0  0  0  0
   20.1384   12.5072    3.3391 O   0  0  0  0  0  0  0  0  0  0  0  0
   19.5473   13.1935    2.3530 C   0  0  0  0  0  0  0  0  0  0  0  0
   26.0326   12.1846    3.0890 Cl  0  0  0  0  0  0  0  0  0  0  0  0
  1  2  1  0
  2  3  1  0
  3  4  1  0
  1  5  1  0
  4  6  1  0
  5  6  1  0
  3  7  1  6
  7  8  1  0
  5  9  1  1
M  END
$$$$
20
     RDKit          3D

 14 14  0  0  0  0  0  0  0  0999 V2000
   19.9063   13.3042    2.0507 O   0  0  0  0  0  0  0  0  0  0  0  0
   20.6063   13.2759    2.9330 C   0  0  0  0  0  0  0  0  0  0  0  0
   21.9117   12.5851    2.8589 C   0  0  0  0  0  0  0  0  0  0  0  0
   20.2418   13.7342    4.1470 O   0  0  0  0  0  0  0  0  0  0  0  0
   22.2915   11.9619    1.5853 C   0  0  2  0  0  0  0  0  0  0  0  0
   21.5184   11.9225    0.5472 O   0  0  0  0  0  0  0  0  0  0  0  0
   22.7592   12.5249    3.9717 C   0  0  0  0  0  0  0  0  0  0  0  0
   24.0187   11.8615    3.8050 C   0  0  2  0  0  0  0  0  0  0  0  0
   24.9615   11.8891    4.9104 C   0  0  0  0  0  0  0  0  0  0  0  0
   24.3569   11.2836    2.5766 C   0  0  0  0  0  0  0  0  0  0  0  0
   23.4683   11.3249    1.6474 C   0  0  2  0  0  0  0  0  0  0  0  0
   23.8223   10.5835    0.1287 C   0  0  0  0  0  0  0  0  0  0  0  0
   23.6674    9.5092    0.0735 O   0  0  0  0  0  0  0  0  0  0  0  0
   24.4043   11.3433   -0.6500 O   0  0  0  0  0  0  0  0  0  0  0  0
  1  2  2  0
  2  3  1  0
  2  4  1  0
  3  5  1  0
  5  6  1  1
  3  7  1  0
  7  8  1  0
  8  9  1  6
  8 10  1  0
  5 11  1  0
 10 11  1  0
 11 12  1  6
 12 13  1  0
 12 14  2  0
M  END
$$$$
21
     RDKit          3D

 14 14  0  0  0  0  0  0  0  0999 V2000
   19.3113   10.3887    1.8376 C   0  0  0  0  0  0  0  0  0  0  0  0
   20.1360   11.3113    1.9473 C   0  0  0  0  0  0  0  0  0  0  0  0
   19.6231    9.0160    1.8552 C   0  0  1  0  0  0  0  0  0  0  0  0
   21.4918   10.8875    2.2998 C   0  0  1  0  0  0  0  0  0  0  0  0
   21.8518    9.5541    2.3406 C   0  0  0  0  0  0  0  0  0  0  0  0
   22.5492   12.0403    2.2251 C   0  0  2  0  0  0  0  0  0  0  0  0
   22.8486   12.5397    3.4156 C   0  0  0  0  0  0  0  0  0  0  0  0
   24.1208   13.2430    3.3866 C   0  0  0  0  0  0  0  0  0  0  0  0
   22.3519   12.8771    1.1303 O   0  0  0  0  0  0  0  0  0  0  0  0
   20.9033    8.6568    2.0493 C   0  0  0  0  0  0  0  0  0  0  0  0
   21.8091   13.5208    3.9005 C   0  0  0  0  0  0  0  0  0  0  0  0
   18.4758    7.8008    1.7474 C   0  0  0  0  0  0  0  0  0  0  0  0
   18.6929    6.7059    2.1335 O   0  0  0  0  0  0  0  0  0  0  0  0
   17.3747    8.2123    1.2534 O   0  0  0  0  0  0  0  0  0  0  0  0
  1  2  1  0
  1  3  1  0
  4  2  1  6
  4  5  1  0
  4  6  1  0
  6  7  1  0
  7  8  1  0
  6  9  1  6
  3 10  1  0
  5 10  1  0
  7 11  1  0
  3 12  1  1
 12 13  2  0
 12 14  1  0
M  END
$$$$
22
     RDKit          3D

 14 14  0  0  0  0  0  0  0  0999 V2000
   20.6644   11.9876    4.1338 N   0  0  0  0  0  0  0  0  0  0  0  0
   20.6328   12.5914    3.0781 C   0  0  1  0  0  0  0  0  0  0  0  0
   21.0076   11.9607    1.9055 C   0  0  0  0  0  0  0  0  0  0  0  0
   21.0180   12.4299    0.6574 O   0  0  0  0  0  0  0  0  0  0  0  0
   20.1577   13.9031    2.9974 C   0  0  0  0  0  0  0  0  0  0  0  0
   21.6289   10.6129    1.9621 N   0  0  0  0  0  0  0  0  0  0  0  0
   21.7046    9.9861    3.1817 C   0  0  0  0  0  0  0  0  0  0  0  0
   21.9651    9.7622    0.8197 C   0  0  1  0  0  0  0  0  0  0  0  0
   21.2119   10.6789    4.2602 C   0  0  0  0  0  0  0  0  0  0  0  0
   23.1316   10.0796    0.2910 C   0  0  0  0  0  0  0  0  0  0  0  0
   21.9525    8.3036    1.1753 C   0  0  0  0  0  0  0  0  0  0  0  0
   23.2517   10.9691   -0.7380 O   0  0  0  0  0  0  0  0  0  0  0  0
   20.9572    7.6934    1.0470 O   0  0  0  0  0  0  0  0  0  0  0  0
   24.2912    9.4639    0.4957 O   0  0  0  0  0  0  0  0  0  0  0  0
  1  2  1  0
  2  3  1  0
  3  4  2  0
  2  5  1  6
  3  6  1  0
  6  7  1  0
  6  8  1  0
  1  9  1  0
  7  9  1  0
  8 10  1  0
  8 11  1  1
 10 12  1  0
 11 13  1  0
 10 14  2  0
M  END
$$$$
23
     RDKit          3D

 14 15  0  0  0  0  0  0  0  0999 V2000
   20.4601   13.7756    3.6865 C   0  0  0  0  0  0  0  0  0  0  0  0
   21.5224   12.9237    4.0049 C   0  0  0  0  0  0  0  0  0  0  0  0
   22.0326   12.1435    3.2237 C   0  0  1  0  0  0  0  0  0  0  0  0
   23.1805   11.2539    3.4430 C   0  0  0  0  0  0  0  0  0  0  0  0
   21.4372   11.8981    1.7971 C   0  0  1  0  0  0  0  0  0  0  0  0
   22.0600   10.8759    0.8414 C   0  0  0  0  0  0  0  0  0  0  0  0
   23.7562   10.3069    2.5826 C   0  0  0  0  0  0  0  0  0  0  0  0
   23.2108   10.2059    1.3642 C   0  0  1  0  0  0  0  0  0  0  0  0
   20.2381   12.5285    1.3326 C   0  0  0  0  0  0  0  0  0  0  0  0
   19.5155   12.2444    0.4513 O   0  0  0  0  0  0  0  0  0  0  0  0
   23.6886    9.0269    0.5885 C   0  0  0  0  0  0  0  0  0  0  0  0
   19.7354   13.5878    2.3319 C   0  0  0  0  0  0  0  0  0  0  0  0
   23.1718    8.8235   -0.6650 O   0  0  0  0  0  0  0  0  0  0  0  0
   24.5315    8.1479    0.9374 O   0  0  0  0  0  0  0  0  0  0  0  0
  1  2  1  0
  3  2  1  1
  3  4  1  0
  3  5  1  0
  5  6  1  1
  4  7  1  0
  6  8  1  0
  7  8  1  0
  5  9  1  0
  9 10  2  0
  8 11  1  1
  1 12  1  0
  9 12  1  0
 11 13  2  0
 11 14  1  0
M  END
$$$$
24
     RDKit          3D

 14 14  0  0  0  0  0  0  0  0999 V2000
   19.9063   13.3042    2.0507 O   0  0  0  0  0  0  0  0  0  0  0  0
   20.6063   13.2759    2.9330 C   0  0  0  0  0  0  0  0  0  0  0  0
   21.9117   12.5851    2.8589 C   0  0  0  0  0  0  0  0  0  0  0  0
   20.2418   13.7342    4.1470 O   0  0  0  0  0  0  0  0  0  0  0  0
   22.2915   11.9619    1.5853 C   0  0  0  0  0  0  0  0  0  0  0  0
   21.5184   11.9225    0.5472 O   0  0  0  0  0  0  0  0  0  0  0  0
   22.7592   12.5249    3.9717 C   0  0  0  0  0  0  0  0  0  0  0  0
   24.0187   11.8615    3.8050 C   0  0  0  0  0  0  0  0  0  0  0  0
   24.3311   11.4041    2.6835 C   0  0  0  0  0  0  0  0  0  0  0  0
   25.6929   10.7046    2.4871 C   0  0  0  0  0  0  0  0  0  0  0  0
   23.5208   11.4235    1.5602 C   0  0  0  0  0  0  0  0  0  0  0  0
   26.7207   11.3568    2.6102 O   0  0  0  0  0  0  0  0  0  0  0  0
   25.8604    9.4103    2.2437 N   0  0  0  0  0  0  0  0  0  0  0  0
   27.1219    8.7326    2.2141 C   0  0  0  0  0  0  0  0  0  0  0  0
  1  2  2  0
  2  3  1  0
  2  4  1  0
  3  5  1  0
  5  6  1  0
  3  7  1  0
  7  8  1  0
  8  9  1  0
  9 10  1  0
  5 11  1  0
  9 11  1  0
 10 12  2  0
 10 13  1  0
 13 14  1  0
M  END
$$$$
25
     RDKit          3D

 14 15  0  0  0  0  0  0  0  0999 V2000
   20.4601   13.7756    3.6865 C   0  0  0  0  0  0  0  0  0  0  0  0
   21.5224   12.9237    4.0049 C   0  0  0  0  0  0  0  0  0  0  0  0
   22.0326   12.1435    3.2237 C   0  0  1  0  0  0  0  0  0  0  0  0
   23.1805   11.2539    3.4430 C   0  0  0  0  0  0  0  0  0  0  0  0
   21.4372   11.8981    1.7971 C   0  0  1  0  0  0  0  0  0  0  0  0
   22.0600   10.8759    0.8414 C   0  0  0  0  0  0  0  0  0  0  0  0
   23.7562   10.3069    2.5826 C   0  0  0  0  0  0  0  0  0  0  0  0
   23.2108   10.2059    1.3642 C   0  0  1  0  0  0  0  0  0  0  0  0
   20.2381   12.5285    1.3326 C   0  0  1  0  0  0  0  0  0  0  0  0
   23.7376    9.1027    0.4473 C   0  0  0  0  0  0  0  0  0  0  0  0
   19.5362   12.2624    0.4266 O   0  0  0  0  0  0  0  0  0  0  0  0
   19.6964   13.5263    2.3999 C   0  0  0  0  0  0  0  0  0  0  0  0
   23.6296    7.8637    0.8311 O   0  0  0  0  0  0  0  0  0  0  0  0
   23.1672    9.2150   -0.9044 O   0  0  0  0  0  0  0  0  0  0  0  0
  1  2  1  0
  3  2  1  1
  3  4  1  0
  3  5  1  0
  5  6  1  1
  4  7  1  0
  6  8  1  0
  7  8  1  0
  5  9  1  0
  8 10  1  1
  9 11  1  1
  1 12  1  0
  9 12  1  0
 10 13  1  0
 10 14  2  0
M  END
$$$$
26
     RDKit          3D

 14 15  0  0  0  0  0  0  0  0999 V2000
   19.7675   12.7267    1.7986 O   0  0  0  0  0  0  0  0  0  0  0  0
   20.3830   13.2069    2.6641 C   0  0  0  0  0  0  0  0  0  0  0  0
   19.9371   14.0795    3.5924 O   0  0  0  0  0  0  0  0  0  0  0  0
   21.8814   12.8836    2.6825 C   0  0  1  0  0  0  0  0  0  0  0  0
   22.5515   12.9569    3.8650 C   0  0  0  0  0  0  0  0  0  0  0  0
   22.4765   12.2649    1.5585 C   0  0  0  0  0  0  0  0  0  0  0  0
   23.9076   12.6232    3.9934 C   0  0  0  0  0  0  0  0  0  0  0  0
   23.7308   11.8205    1.7120 C   0  0  1  0  0  0  0  0  0  0  0  0
   24.4142   11.2026    0.4981 C   0  0  0  0  0  0  0  0  0  0  0  0
   24.5522   11.9199    2.8475 C   0  0  1  0  0  0  0  0  0  0  0  0
   25.7214   10.9587    0.5723 C   0  0  1  0  0  0  0  0  0  0  0  0
   25.9113   11.5803    2.9240 C   0  0  0  0  0  0  0  0  0  0  0  0
   26.4222   11.0523    1.8170 C   0  0  0  0  0  0  0  0  0  0  0  0
   26.3916   10.3708   -0.5489 O   0  0  0  0  0  0  0  0  0  0  0  0
  1  2  2  0
  2  3  1  0
  4  2  1  1
  4  5  1  0
  4  6  1  0
  5  7  1  0
  8  6  1  6
  8  9  1  0
 10  7  1  6
  8 10  1  0
  9 11  1  0
 10 12  1  0
 11 13  1  0
 12 13  1  0
 11 14  1  1
M  END
$$$$
27
     RDKit          3D

 14 15  0  0  0  0  0  0  0  0999 V2000
   19.9063   13.3042    2.0507 O   0  0  0  0  0  0  0  0  0  0  0  0
   20.4616   12.6394    2.6260 C   0  0  0  0  0  0  0  0  0  0  0  0
   20.5990   11.2403    2.3535 N   0  0  0  0  0  0  0  0  0  0  0  0
   19.9024   10.6807    1.1884 C   0  0  0  0  0  0  0  0  0  0  0  0
   21.3215   12.9653    3.8216 C   0  0  0  0  0  0  0  0  0  0  0  0
   21.5297   10.3760    2.9410 C   0  0  1  0  0  0  0  0  0  0  0  0
   22.2370   10.8687    4.1280 C   0  0  0  0  0  0  0  0  0  0  0  0
   22.5118   12.3305    4.1203 C   0  0  0  0  0  0  0  0  0  0  0  0
   19.8707    9.1964    1.4518 C   0  0  1  0  0  0  0  0  0  0  0  0
   20.9465    9.0484    2.6292 C   0  0  0  0  0  0  0  0  0  0  0  0
   19.1000    8.2820    0.9492 N   0  0  0  0  0  0  0  0  0  0  0  0
   18.4351    7.3131    1.5638 C   0  0  0  0  0  0  0  0  0  0  0  0
   18.8036    6.8260    2.6703 O   0  0  0  0  0  0  0  0  0  0  0  0
   17.2760    6.7508    0.8488 C   0  0  0  0  0  0  0  0  0  0  0  0
  1  2  2  0
  2  3  1  0
  3  4  1  0
  2  5  1  0
  3  6  1  0
  6  7  1  1
  5  8  1  0
  7  8  1  0
  4  9  1  0
  6 10  1  0
  9 10  1  0
  9 11  1  1
 11 12  1  0
 12 13  2  0
 12 14  1  0
M  END
$$$$
28
     RDKit          3D

 14 15  0  0  0  0  0  0  0  0999 V2000
   20.4601   13.7756    3.6865 C   0  0  0  0  0  0  0  0  0  0  0  0
   21.5224   12.9237    4.0049 C   0  0  0  0  0  0  0  0  0  0  0  0
   22.0326   12.1435    3.2237 C   0  0  1  0  0  0  0  0  0  0  0  0
   23.1805   11.2539    3.4430 C   0  0  0  0  0  0  0  0  0  0  0  0
   21.4372   11.8981    1.7971 C   0  0  1  0  0  0  0  0  0  0  0  0
   22.0600   10.8759    0.8414 C   0  0  1  0  0  0  0  0  0  0  0  0
   23.1874   10.1508    1.3239 C   0  0  0  0  0  0  0  0  0  0  0  0
   23.7206   10.6070    2.6558 N   0  0  0  0  0  0  0  0  0  0  0  0
   23.5953    9.1534    0.5571 O   0  0  0  0  0  0  0  0  0  0  0  0
   20.3253   12.6043    1.5320 C   0  0  0  0  0  0  0  0  0  0  0  0
   19.7956   13.5925    2.4330 C   0  0  0  0  0  0  0  0  0  0  0  0
   25.1355   10.0126    2.7459 C   0  0  0  0  0  0  0  0  0  0  0  0
   20.9297   10.0759    0.3228 O   0  0  0  0  0  0  0  0  0  0  0  0
   23.7916   11.5373    4.5409 O   0  0  0  0  0  0  0  0  0  0  0  0
  1  2  1  0
  3  2  1  1
  3  4  1  0
  3  5  1  0
  5  6  1  0
  6  7  1  0
  4  8  1  0
  7  8  1  0
  7  9  2  0
  5 10  1  1
  1 11  1  0
 10 11  1  0
  8 12  1  0
  6 13  1  1
  4 14  2  0
M  END
$$$$
29
     RDKit          3D

 14 15  0  0  0  0  0  0  0  0999 V2000
   19.9063   13.3042    2.0507 O   0  0  0  0  0  0  0  0  0  0  0  0
   20.4616   12.6394    2.6260 C   0  0  0  0  0  0  0  0  0  0  0  0
   20.5990   11.2403    2.3535 N   0  0  0  0  0  0  0  0  0  0  0  0
   19.9024   10.6807    1.1884 C   0  0  0  0  0  0  0  0  0  0  0  0
   21.3215   12.9653    3.8216 C   0  0  0  0  0  0  0  0  0  0  0  0
   21.5297   10.3760    2.9410 C   0  0  1  0  0  0  0  0  0  0  0  0
   22.2370   10.8687    4.1280 C   0  0  0  0  0  0  0  0  0  0  0  0
   22.5118   12.3305    4.1203 C   0  0  0  0  0  0  0  0  0  0  0  0
   21.5749    9.1093    2.4261 C   0  0  0  0  0  0  0  0  0  0  0  0
   20.3373    9.4308    1.2405 C   0  0  1  0  0  0  0  0  0  0  0  0
   19.7552    8.2713    0.6518 O   0  0  0  0  0  0  0  0  0  0  0  0
   19.7265    7.0490    1.2984 C   0  0  0  0  0  0  0  0  0  0  0  0
   18.4400    6.6751    1.7616 C   0  0  0  0  0  0  0  0  0  0  0  0
   17.8926    5.6621    0.9073 O   0  0  0  0  0  0  0  0  0  0  0  0
  1  2  2  0
  2  3  1  0
  3  4  1  0
  2  5  1  0
  3  6  1  0
  6  7  1  1
  5  8  1  0
  7  8  1  0
  6  9  1  0
  4 10  1  0
  9 10  1  0
 10 11  1  1
 11 12  1  0
 12 13  1  0
 13 14  1  0
M  END
$$$$
3
     RDKit          3D

 10 10  0  0  0  0  0  0  0  0999 V2000
   20.4419   12.5930    1.7177 C   0  0  0  0  0  0  0  0  0  0  0  0
   20.3681   13.3210    2.7035 C   0  0  0  0  0  0  0  0  0  0  0  0
   21.2006   13.2721    3.6109 C   0  0  0  0  0  0  0  0  0  0  0  0
   22.1762   12.3411    3.7476 C   0  0  0  0  0  0  0  0  0  0  0  0
   22.2898   11.4452    2.6778 C   0  0  0  0  0  0  0  0  0  0  0  0
   23.2579   10.3733    2.5979 C   0  0  0  0  0  0  0  0  0  0  0  0
   19.3707   14.4117    2.7383 F   0  0  0  0  0  0  0  0  0  0  0  0
   21.4420   11.5741    1.5331 C   0  0  0  0  0  0  0  0  0  0  0  0
   22.9125    9.2564    1.8791 O   0  0  0  0  0  0  0  0  0  0  0  0
   24.3826   10.4726    3.0657 O   0  0  0  0  0  0  0  0  0  0  0  0
  1  2  1  0
  2  3  1  0
  3  4  1  0
  4  5  1  0
  5  6  1  0
  2  7  1  0
  1  8  1  0
  5  8  1  0
  6  9  1  0
  6 10  2  0
M  END
$$$$
30
     RDKit          3D

 14 15  0  0  0  0  0  0  0  0999 V2000
   19.7675   12.7267    1.7986 C   0  0  0  0  0  0  0  0  0  0  0  0
   20.3237   11.5430    1.7679 C   0  0  1  0  0  0  0  0  0  0  0  0
   20.1346   10.6006    0.7447 O   0  0  0  0  0  0  0  0  0  0  0  0
   21.6844   11.2399    2.1957 C   0  0  2  0  0  0  0  0  0  0  0  0
   20.4035   13.7157    2.4974 C   0  0  1  0  0  0  0  0  0  0  0  0
   19.7236   14.9564    2.7689 F   0  0  0  0  0  0  0  0  0  0  0  0
   22.2518    9.9052    2.1846 C   0  0  2  0  0  0  0  0  0  0  0  0
   22.2206   12.3278    2.9799 C   0  0  0  0  0  0  0  0  0  0  0  0
   21.2778    8.8852    1.8313 C   0  0  0  0  0  0  0  0  0  0  0  0
   23.5047    9.7443    2.5987 O   0  0  0  0  0  0  0  0  0  0  0  0
   21.5156   13.5359    3.2966 C   0  0  0  0  0  0  0  0  0  0  0  0
   21.7510    7.6938    1.8374 O   0  0  0  0  0  0  0  0  0  0  0  0
   20.1539    9.1770    1.0764 C   0  0  0  0  0  0  0  0  0  0  0  0
   19.1832    8.4061    1.0202 O   0  0  0  0  0  0  0  0  0  0  0  0
  2  1  1  6
  2  3  1  0
  2  4  1  0
  1  5  1  0
  5  6  1  1
  4  7  1  0
  4  8  1  1
  7  9  1  0
  7 10  1  1
  5 11  1  0
  8 11  1  0
  9 12  2  0
  3 13  1  0
  9 13  1  0
 13 14  2  0
M  END
$$$$
31
     RDKit          3D

 14 15  0  0  0  0  0  0  0  0999 V2000
   20.5511   13.0489    4.2262 O   0  0  0  0  0  0  0  0  0  0  0  0
   21.2003   12.6789    3.3045 C   0  0  0  0  0  0  0  0  0  0  0  0
   20.6274   12.5592    1.9754 C   0  0  2  0  0  0  0  0  0  0  0  0
   22.6300   12.5448    3.4115 N   0  0  0  0  0  0  0  0  0  0  0  0
   19.3331   12.7058    1.7824 O   0  0  0  0  0  0  0  0  0  0  0  0
   21.2826   11.4700    1.1619 C   0  0  2  0  0  0  0  0  0  0  0  0
   22.8511   11.4014    1.3639 C   0  0  1  0  0  0  0  0  0  0  0  0
   23.2191   12.8042    4.5128 C   0  0  0  0  0  0  0  0  0  0  0  0
   20.7164   10.7491    0.2601 O   0  0  0  0  0  0  0  0  0  0  0  0
   23.3462   11.5742    2.7190 C   0  0  1  0  0  0  0  0  0  0  0  0
   23.4318   10.1373    0.7459 O   0  0  0  0  0  0  0  0  0  0  0  0
   24.6787   12.3924    4.3748 C   0  0  0  0  0  0  0  0  0  0  0  0
   24.7211   11.8718    2.9825 C   0  0  2  0  0  0  0  0  0  0  0  0
   25.3020   13.0646    2.2192 C   0  0  0  0  0  0  0  0  0  0  0  0
  1  2  2  0
  2  3  1  0
  2  4  1  0
  3  5  1  1
  3  6  1  0
  6  7  1  0
  4  8  1  0
  6  9  1  6
 10  4  1  6
  7 10  1  0
  7 11  1  1
  8 12  1  0
 10 13  1  0
 12 13  1  0
 13 14  1  6
M  END
$$$$
32
     RDKit          3D

 14 15  0  0  0  0  0  0  0  0999 V2000
   19.7675   12.7267    1.7986 C   0  0  0  0  0  0  0  0  0  0  0  0
   20.3237   11.5430    1.7679 C   0  0  2  0  0  0  0  0  0  0  0  0
   21.0679   11.0397    2.8238 C   0  0  1  0  0  0  0  0  0  0  0  0
   20.9504   10.8850    0.5954 O   0  0  0  0  0  0  0  0  0  0  0  0
   21.7993    9.7990    1.1063 C   0  0  1  0  0  0  0  0  0  0  0  0
   20.6205   11.1579    4.1122 O   0  0  0  0  0  0  0  0  0  0  0  0
   20.1015   13.6676    2.9085 C   0  0  0  0  0  0  0  0  0  0  0  0
   22.6936    9.2896    0.5257 N   0  0  0  0  0  0  0  0  0  0  0  0
   21.8732    9.9363    2.6303 C   0  0  0  0  0  0  0  0  0  0  0  0
   23.0064    9.4787   -0.9381 C   0  0  2  0  0  0  0  0  0  0  0  0
   23.8783    8.6286   -1.4749 C   0  0  0  0  0  0  0  0  0  0  0  0
   23.5764   10.8569   -1.2116 O   0  0  0  0  0  0  0  0  0  0  0  0
   23.1113    7.9232    0.6481 C   0  0  0  0  0  0  0  0  0  0  0  0
   23.9285    7.5457   -0.4506 C   0  0  0  0  0  0  0  0  0  0  0  0
  2  1  1  6
  2  3  1  0
  2  4  1  0
  4  5  1  0
  3  6  1  1
  1  7  1  0
  5  8  1  6
  3  9  1  0
  5  9  1  0
  8 10  1  0
 10 11  1  0
 10 12  1  1
  8 13  1  0
 11 14  1  0
 13 14  1  0
M  END
$$$$
33
     RDKit          3D

 15 16  0  0  0  0  0  0  0  0999 V2000
   19.7675   12.7267    1.7986 C   0  0  0  0  0  0  0  0  0  0  0  0
   20.3237   11.5430    1.7679 C   0  0  1  0  0  0  0  0  0  0  0  0
   20.2661   13.5642    2.7080 C   0  0  0  0  0  0  0  0  0  0  0  0
   21.3158   11.0728    2.5537 C   0  0  1  0  0  0  0  0  0  0  0  0
   19.6931   10.2790    0.8831 C   0  0  0  0  0  0  0  0  0  0  0  0
   20.1024    9.0092    1.3098 C   0  0  2  0  0  0  0  0  0  0  0  0
   21.7301    9.6780    2.5133 C   0  0  0  0  0  0  0  0  0  0  0  0
   22.1604   11.8325    3.4860 C   0  0  0  0  0  0  0  0  0  0  0  0
   21.1310    8.8106    1.8675 C   0  0  0  0  0  0  0  0  0  0  0  0
   19.7485   14.7990    2.9440 O   0  0  0  0  0  0  0  0  0  0  0  0
   19.1775    8.0146    0.6403 O   0  0  0  0  0  0  0  0  0  0  0  0
   19.2450    6.7178    1.1510 C   0  0  0  0  0  0  0  0  0  0  0  0
   21.4241   13.2448    3.4874 C   0  0  0  0  0  0  0  0  0  0  0  0
   20.3121    6.0871    1.1418 O   0  0  0  0  0  0  0  0  0  0  0  0
   18.0011    6.0773    1.4795 C   0  0  0  0  0  0  0  0  0  0  0  0
  2  1  1  1
  1  3  1  0
  2  4  1  0
  2  5  1  0
  5  6  1  0
  4  7  1  6
  4  8  1  0
  6  9  1  0
  7  9  1  0
  3 10  1  0
  6 11  1  6
 11 12  1  0
  3 13  1  0
  8 13  1  0
 12 14  2  0
 12 15  1  0
M  END
$$$$
34
     RDKit          3D

 15 16  0  0  0  0  0  0  0  0999 V2000
   20.4601   13.7756    3.6865 C   0  0  0  0  0  0  0  0  0  0  0  0
   21.5224   12.9237    4.0049 C   0  0  0  0  0  0  0  0  0  0  0  0
   22.0326   12.1435    3.2237 C   0  0  1  0  0  0  0  0  0  0  0  0
   23.1805   11.2539    3.4430 C   0  0  0  0  0  0  0  0  0  0  0  0
   21.4372   11.8981    1.7971 C   0  0  1  0  0  0  0  0  0  0  0  0
   22.0600   10.8759    0.8414 C   0  0  0  0  0  0  0  0  0  0  0  0
   23.7562   10.3069    2.5826 C   0  0  0  0  0  0  0  0  0  0  0  0
   23.2108   10.2059    1.3642 C   0  0  1  0  0  0  0  0  0  0  0  0
   23.8869    9.0981    0.2749 C   0  0  0  0  0  0  0  0  0  0  0  0
   20.3049   12.6187    1.5094 C   0  0  1  0  0  0  0  0  0  0  0  0
   19.5959   12.3664    0.4227 O   0  0  0  0  0  0  0  0  0  0  0  0
   19.7023   13.4837    2.4757 C   0  0  0  0  0  0  0  0  0  0  0  0
   24.9478    9.1190    0.0392 O   0  0  0  0  0  0  0  0  0  0  0  0
   22.9868    8.3082   -0.3660 N   0  0  0  0  0  0  0  0  0  0  0  0
   23.5933    7.2450   -1.1093 C   0  0  0  0  0  0  0  0  0  0  0  0
  1  2  1  0
  3  2  1  1
  3  4  1  0
  3  5  1  0
  5  6  1  1
  4  7  1  0
  6  8  1  0
  7  8  1  0
  8  9  1  1
  5 10  1  0
 10 11  1  1
  1 12  1  0
 10 12  1  0
  9 13  2  0
  9 14  1  0
 14 15  1  0
M  END
$$$$
35
     RDKit          3D

 15 16  0  0  0  0  0  0  0  0999 V2000
   19.7675   12.7267    1.7986 C   0  0  0  0  0  0  0  0  0  0  0  0
   20.3237   11.5430    1.7679 C   0  0  1  0  0  0  0  0  0  0  0  0
   20.2661   13.5642    2.7080 C   0  0  0  0  0  0  0  0  0  0  0  0
   21.3158   11.0728    2.5537 C   0  0  1  0  0  0  0  0  0  0  0  0
   19.6931   10.2790    0.8831 C   0  0  0  0  0  0  0  0  0  0  0  0
   20.1024    9.0092    1.3098 C   0  0  2  0  0  0  0  0  0  0  0  0
   21.7301    9.6780    2.5133 C   0  0  0  0  0  0  0  0  0  0  0  0
   22.1604   11.8325    3.4860 C   0  0  0  0  0  0  0  0  0  0  0  0
   21.1310    8.8106    1.8675 C   0  0  0  0  0  0  0  0  0  0  0  0
   19.7485   14.7990    2.9440 O   0  0  0  0  0  0  0  0  0  0  0  0
   19.1775    8.0146    0.6403 O   0  0  0  0  0  0  0  0  0  0  0  0
   19.2450    6.7178    1.1510 C   0  0  0  0  0  0  0  0  0  0  0  0
   21.4427   13.2252    3.5497 C   0  0  0  0  0  0  0  0  0  0  0  0
   20.3106    6.0854    1.1392 O   0  0  0  0  0  0  0  0  0  0  0  0
   18.0712    6.2247    1.8057 O   0  0  0  0  0  0  0  0  0  0  0  0
  2  1  1  1
  1  3  1  0
  2  4  1  0
  2  5  1  0
  5  6  1  0
  4  7  1  6
  4  8  1  0
  6  9  1  0
  7  9  1  0
  3 10  1  0
  6 11  1  6
 11 12  1  0
  3 13  1  0
  8 13  1  0
 12 14  2  0
 12 15  1  0
M  END
$$$$
36
     RDKit          3D

 15 15  0  0  0  0  0  0  0  0999 V2000
   20.7814   12.4946    4.0990 C   0  0  0  0  0  0  0  0  0  0  0  0
   20.4057   13.0742    3.0328 C   0  0  0  0  0  0  0  0  0  0  0  0
   21.5469   11.2700    3.9847 C   0  0  0  0  0  0  0  0  0  0  0  0
   20.6444   12.6591    1.7393 C   0  0  0  0  0  0  0  0  0  0  0  0
   19.6421   14.4415    3.1944 C   0  0  0  0  0  0  0  0  0  0  0  0
   21.2842   11.3993    1.5603 C   0  0  2  0  0  0  0  0  0  0  0  0
   21.7119   10.7359    2.6765 C   0  0  0  0  0  0  0  0  0  0  0  0
   21.6353   10.8586    0.0440 C   0  0  0  0  0  0  0  0  0  0  0  0
   22.8086   11.4153   -0.3661 O   0  0  0  0  0  0  0  0  0  0  0  0
   22.4199    9.2535    2.5201 C   0  0  0  0  0  0  0  0  0  0  0  0
   21.6982    8.3615    1.7275 C   0  0  0  0  0  0  0  0  0  0  0  0
   20.3061    8.7043    1.4353 O   0  0  0  0  0  0  0  0  0  0  0  0
   19.3714    7.6121    1.8094 C   0  0  0  0  0  0  0  0  0  0  0  0
   19.7350    6.3879    1.5670 O   0  0  0  0  0  0  0  0  0  0  0  0
   18.1393    8.0864    2.0973 O   0  0  0  0  0  0  0  0  0  0  0  0
  1  2  1  0
  1  3  1  0
  2  4  1  0
  2  5  1  0
  4  6  1  0
  3  7  1  0
  6  7  1  0
  6  8  1  6
  8  9  1  0
  7 10  1  0
 10 11  1  0
 11 12  1  0
 12 13  1  0
 13 14  1  0
 13 15  2  0
M  END
$$$$
37
     RDKit          3D

 15 16  0  0  0  0  0  0  0  0999 V2000
   23.5534   11.4426    3.9595 C   0  0  0  0  0  0  0  0  0  0  0  0
   22.3523   11.5610    3.9625 C   0  0  0  0  0  0  0  0  0  0  0  0
   21.6148   12.4491    3.4979 C   0  0  1  0  0  0  0  0  0  0  0  0
   22.2918   13.3511    2.5256 C   0  0  2  0  0  0  0  0  0  0  0  0
   24.3692   12.2681    3.0908 C   0  0  0  0  0  0  0  0  0  0  0  0
   25.8502   12.2051    2.9976 C   0  0  0  0  0  0  0  0  0  0  0  0
   21.5167   14.1777    1.7579 F   0  0  0  0  0  0  0  0  0  0  0  0
   23.7406   13.2632    2.2811 C   0  0  0  0  0  0  0  0  0  0  0  0
   20.1226   12.5330    3.4504 O   0  0  0  0  0  0  0  0  0  0  0  0
   26.4419   12.5665    1.9753 N   0  0  0  0  0  0  0  0  0  0  0  0
   26.5899   11.6979    4.0797 C   0  0  0  0  0  0  0  0  0  0  0  0
   27.8424   12.4019    2.0595 C   0  0  0  0  0  0  0  0  0  0  0  0
   19.4545   13.0047    2.3224 C   0  0  0  0  0  0  0  0  0  0  0  0
   27.9756   11.7457    3.4365 C   0  0  0  0  0  0  0  0  0  0  0  0
   28.8841   12.8091    1.3662 O   0  0  0  0  0  0  0  0  0  0  0  0
  1  2  1  0
  2  3  1  0
  3  4  1  0
  1  5  1  0
  5  6  1  0
  4  7  1  6
  4  8  1  0
  5  8  1  0
  3  9  1  6
  6 10  2  0
  6 11  1  0
 10 12  1  0
  9 13  1  0
 11 14  2  0
 12 14  1  0
 12 15  2  0
M  END
$$$$
38
     RDKit          3D

 15 16  0  0  0  0  0  0  0  0999 V2000
   19.7675   12.7267    1.7986 C   0  0  0  0  0  0  0  0  0  0  0  0
   20.3237   11.5430    1.7679 C   0  0  1  0  0  0  0  0  0  0  0  0
   20.1346   10.6006    0.7447 O   0  0  0  0  0  0  0  0  0  0  0  0
   21.6844   11.2399    2.1957 C   0  0  1  0  0  0  0  0  0  0  0  0
   20.7410    9.4727    0.8309 C   0  0  0  0  0  0  0  0  0  0  0  0
   21.9721    9.8635    1.7270 N   0  0  0  0  0  0  0  0  0  0  0  0
   22.9007   11.8903    1.5701 C   0  0  0  0  0  0  0  0  0  0  0  0
   23.1690    9.1581    1.9665 C   0  0  0  0  0  0  0  0  0  0  0  0
   20.0441   13.5285    3.0720 C   0  0  0  0  0  0  0  0  0  0  0  0
   24.1692   11.2151    1.9759 C   0  0  0  0  0  0  0  0  0  0  0  0
   20.5653    8.2453    0.5070 O   0  0  0  0  0  0  0  0  0  0  0  0
   24.1967    9.8583    1.5284 C   0  0  1  0  0  0  0  0  0  0  0  0
   25.5313    9.2216    2.1264 C   0  0  0  0  0  0  0  0  0  0  0  0
   26.6482    9.8555    1.6220 O   0  0  0  0  0  0  0  0  0  0  0  0
   25.5866    8.3001    2.8104 O   0  0  0  0  0  0  0  0  0  0  0  0
  2  1  1  6
  2  3  1  0
  2  4  1  0
  3  5  1  0
  4  6  1  0
  5  6  1  0
  4  7  1  6
  6  8  1  0
  1  9  1  0
  7 10  1  0
  5 11  2  0
  8 12  1  0
 10 12  1  0
 12 13  1  1
 13 14  1  0
 13 15  2  0
M  END
$$$$
39
     RDKit          3D

 15 16  0  0  0  0  0  0  0  0999 V2000
   19.7675   12.7267    1.7986 O   0  0  0  0  0  0  0  0  0  0  0  0
   20.3830   13.2069    2.6641 C   0  0  0  0  0  0  0  0  0  0  0  0
   19.9371   14.0795    3.5924 O   0  0  0  0  0  0  0  0  0  0  0  0
   21.8814   12.8836    2.6825 C   0  0  1  0  0  0  0  0  0  0  0  0
   22.5515   12.9569    3.8650 C   0  0  0  0  0  0  0  0  0  0  0  0
   22.4765   12.2649    1.5585 C   0  0  0  0  0  0  0  0  0  0  0  0
   23.9076   12.6232    3.9934 C   0  0  0  0  0  0  0  0  0  0  0  0
   23.7308   11.8205    1.7120 C   0  0  1  0  0  0  0  0  0  0  0  0
   24.4142   11.2026    0.4981 C   0  0  2  0  0  0  0  0  0  0  0  0
   24.5522   11.9199    2.8475 C   0  0  1  0  0  0  0  0  0  0  0  0
   25.7214   10.9587    0.5723 C   0  0  1  0  0  0  0  0  0  0  0  0
   23.9145   11.2155   -0.7463 O   0  0  0  0  0  0  0  0  0  0  0  0
   25.8069   11.5161    2.6676 C   0  0  0  0  0  0  0  0  0  0  0  0
   26.3406   11.0458    1.7163 C   0  0  0  0  0  0  0  0  0  0  0  0
   26.3460   10.2815   -0.7440 C   0  0  0  0  0  0  0  0  0  0  0  0
  1  2  2  0
  2  3  1  0
  4  2  1  1
  4  5  1  0
  4  6  1  0
  5  7  1  0
  8  6  1  6
  8  9  1  0
 10  7  1  6
  8 10  1  0
  9 11  1  0
  9 12  1  6
 10 13  1  0
 11 14  1  0
 13 14  1  0
 11 15  1  1
M  END
$$$$
4
     RDKit          3D

 11 12  0  0  0  0  0  0  0  0999 V2000
   20.2373   10.2958    3.6276 C   0  0  0  0  0  0  0  0  0  0  0  0
   21.0646   11.1841    3.3500 C   0  0  2  0  0  0  0  0  0  0  0  0
   21.8035   12.0013    4.1405 C   0  0  0  0  0  0  0  0  0  0  0  0
   19.5084    9.3247    2.8838 C   0  0  0  0  0  0  0  0  0  0  0  0
   20.9422   11.4766    1.8508 C   0  0  1  0  0  0  0  0  0  0  0  0
   21.7926   12.5581    1.2625 C   0  0  2  0  0  0  0  0  0  0  0  0
   21.9271   12.6241    0.0159 O   0  0  0  0  0  0  0  0  0  0  0  0
   19.4991    9.5609    1.5552 C   0  0  0  0  0  0  0  0  0  0  0  0
   20.2662   10.6408    1.0447 C   0  0  0  0  0  0  0  0  0  0  0  0
   22.5968   13.0492    3.5681 C   0  0  0  0  0  0  0  0  0  0  0  0
   22.5775   13.2791    2.1953 C   0  0  0  0  0  0  0  0  0  0  0  0
  2  1  1  1
  2  3  1  0
  1  4  1  0
  2  5  1  0
  5  6  1  0
  6  7  1  6
  4  8  1  0
  5  9  1  6
  8  9  1  0
  3 10  1  0
  6 11  1  0
 10 11  1  0
M  END
$$$$
40
     RDKit          3D

 15 15  0  0  0  0  0  0  0  0999 V2000
   23.5534   11.4426    3.9595 C   0  0  0  0  0  0  0  0  0  0  0  0
   22.3523   11.5610    3.9625 C   0  0  0  0  0  0  0  0  0  0  0  0
   21.6148   12.4491    3.4979 C   0  0  0  0  0  0  0  0  0  0  0  0
   22.2918   13.3511    2.5256 C   0  0  0  0  0  0  0  0  0  0  0  0
   24.3692   12.2681    3.0908 C   0  0  0  0  0  0  0  0  0  0  0  0
   25.8502   12.2051    2.9976 C   0  0  0  0  0  0  0  0  0  0  0  0
   23.7365   13.2499    2.2712 C   0  0  0  0  0  0  0  0  0  0  0  0
   20.1659   12.5529    3.3528 O   0  0  0  0  0  0  0  0  0  0  0  0
   26.4734   12.5811    1.9603 N   0  0  0  0  0  0  0  0  0  0  0  0
   26.5626   12.1686    4.1921 O   0  0  0  0  0  0  0  0  0  0  0  0
   27.9025   12.5549    1.8308 C   0  0  0  0  0  0  0  0  0  0  0  0
   28.2725   11.7520    0.7572 C   0  0  0  0  0  0  0  0  0  0  0  0
   19.4983   12.8068    2.1814 C   0  0  0  0  0  0  0  0  0  0  0  0
   27.3603   11.3778   -0.0867 O   0  0  0  0  0  0  0  0  0  0  0  0
   29.1130   10.6202    1.1597 O   0  0  0  0  0  0  0  0  0  0  0  0
  1  2  1  0
  2  3  1  0
  3  4  1  0
  1  5  1  0
  5  6  1  0
  4  7  1  0
  5  7  1  0
  3  8  1  0
  6  9  1  0
  6 10  2  0
  9 11  1  0
 11 12  1  0
  8 13  1  0
 12 14  1  0
 12 15  2  0
M  END
$$$$
41
     RDKit          3D

 15 16  0  0  0  0  0  0  0  0999 V2000
   19.9063   13.3042    2.0507 O   0  0  0  0  0  0  0  0  0  0  0  0
   20.6063   13.2759    2.9330 C   0  0  0  0  0  0  0  0  0  0  0  0
   21.9117   12.5851    2.8589 C   0  0  0  0  0  0  0  0  0  0  0  0
   20.2418   13.7342    4.1470 O   0  0  0  0  0  0  0  0  0  0  0  0
   22.2915   11.9619    1.5853 C   0  0  2  0  0  0  0  0  0  0  0  0
   21.5184   11.9225    0.5472 O   0  0  0  0  0  0  0  0  0  0  0  0
   22.7592   12.5249    3.9717 C   0  0  0  0  0  0  0  0  0  0  0  0
   23.3729   11.0271    1.6750 C   0  0  2  0  0  0  0  0  0  0  0  0
   24.2576   11.0142    2.7800 C   0  0  0  0  0  0  0  0  0  0  0  0
   23.9677   11.7230    3.7941 C   0  0  0  0  0  0  0  0  0  0  0  0
   25.4075   10.1839    2.7139 C   0  0  0  0  0  0  0  0  0  0  0  0
   23.8101   10.2043    0.5730 C   0  0  0  0  0  0  0  0  0  0  0  0
   25.7128    9.4016    1.6293 C   0  0  0  0  0  0  0  0  0  0  0  0
   26.8962    8.5848    1.6332 O   0  0  0  0  0  0  0  0  0  0  0  0
   24.8540    9.3920    0.5752 C   0  0  0  0  0  0  0  0  0  0  0  0
  1  2  2  0
  2  3  1  0
  2  4  1  0
  3  5  1  0
  5  6  1  1
  3  7  1  0
  5  8  1  0
  8  9  1  0
  7 10  1  0
  9 10  1  0
  9 11  1  0
  8 12  1  6
 11 13  1  0
 13 14  1  0
 12 15  1  0
 13 15  1  0
M  END
$$$$
42
     RDKit          3D

 15 15  0  0  0  0  0  0  0  0999 V2000
   19.9063   13.3042    2.0507 O   0  0  0  0  0  0  0  0  0  0  0  0
   20.6063   13.2759    2.9330 C   0  0  0  0  0  0  0  0  0  0  0  0
   21.9117   12.5851    2.8589 C   0  0  0  0  0  0  0  0  0  0  0  0
   20.2418   13.7342    4.1470 O   0  0  0  0  0  0  0  0  0  0  0  0
   22.2915   11.9619    1.5853 C   0  0  0  0  0  0  0  0  0  0  0  0
   21.5184   11.9225    0.5472 O   0  0  0  0  0  0  0  0  0  0  0  0
   22.7592   12.5249    3.9717 C   0  0  0  0  0  0  0  0  0  0  0  0
   24.0187   11.8615    3.8050 C   0  0  0  0  0  0  0  0  0  0  0  0
   24.3311   11.4041    2.6835 C   0  0  0  0  0  0  0  0  0  0  0  0
   25.6929   10.7046    2.4871 C   0  0  0  0  0  0  0  0  0  0  0  0
   23.5208   11.4235    1.5602 C   0  0  1  0  0  0  0  0  0  0  0  0
   26.7207   11.3568    2.6102 O   0  0  0  0  0  0  0  0  0  0  0  0
   25.8604    9.4103    2.2437 N   0  0  0  0  0  0  0  0  0  0  0  0
   23.8281   10.6482    0.2981 O   0  0  0  0  0  0  0  0  0  0  0  0
   27.1466    8.7373    2.2094 C   0  0  0  0  0  0  0  0  0  0  0  0
  1  2  2  0
  2  3  1  0
  2  4  1  0
  3  5  1  0
  5  6  1  0
  3  7  1  0
  7  8  1  0
  8  9  1  0
  9 10  1  0
  5 11  1  0
  9 11  1  0
 10 12  2  0
 10 13  1  0
 11 14  1  1
 13 15  1  0
M  END
$$$$
43
     RDKit          3D

 16 18  0  0  0  0  0  0  0  0999 V2000
   19.6036   11.9133    1.6517 C   0  0  0  0  0  0  0  0  0  0  0  0
   20.1667   12.9156    2.3106 C   0  0  0  0  0  0  0  0  0  0  0  0
   20.3935   10.8345    1.6498 C   0  0  2  0  0  0  0  0  0  0  0  0
   19.9197    9.5599    1.0200 N   0  0  0  0  0  0  0  0  0  0  0  0
   20.6064    8.4375    1.2071 C   0  0  1  0  0  0  0  0  0  0  0  0
   20.0936    7.2025    0.8766 C   0  0  0  0  0  0  0  0  0  0  0  0
   21.1469   12.7145    3.0115 C   0  0  0  0  0  0  0  0  0  0  0  0
   22.0692    8.5800    1.3365 C   0  0  0  0  0  0  0  0  0  0  0  0
   21.5697   10.6171    2.3662 C   0  0  2  0  0  0  0  0  0  0  0  0
   19.2231    6.6948    1.5683 C   0  0  0  0  0  0  0  0  0  0  0  0
   20.7647    6.2116    0.1324 C   0  0  0  0  0  0  0  0  0  0  0  0
   20.2179    4.8639    0.1769 C   0  0  0  0  0  0  0  0  0  0  0  0
   18.5774    5.5540    1.5600 C   0  0  0  0  0  0  0  0  0  0  0  0
   19.1489    4.5781    0.8740 C   0  0  0  0  0  0  0  0  0  0  0  0
   22.0391   11.6891    3.0293 C   0  0  0  0  0  0  0  0  0  0  0  0
   22.4662    9.5773    2.0963 C   0  0  0  0  0  0  0  0  0  0  0  0
  1  2  1  0
  3  1  1  1
  3  4  1  0
  4  5  1  0
  5  6  1  6
  2  7  1  0
  5  8  1  0
  3  9  1  0
  6 10  1  0
  6 11  1  0
 11 12  1  0
 10 13  1  0
 12 14  1  0
 13 14  1  0
  7 15  1  0
  9 15  1  6
  8 16  1  0
  9 16  1  0
M  END
$$$$
44
     RDKit          3D

 16 17  0  0  0  0  0  0  0  0999 V2000
   19.7690   13.8178    2.5897 C   0  0  0  0  0  0  0  0  0  0  0  0
   20.6672   14.0268    3.5627 C   0  0  0  0  0  0  0  0  0  0  0  0
   21.7885   13.1426    3.6617 C   0  0  0  0  0  0  0  0  0  0  0  0
   22.0249   12.2581    2.5887 C   0  0  2  0  0  0  0  0  0  0  0  0
   20.0965   12.7173    1.7215 C   0  0  0  0  0  0  0  0  0  0  0  0
   21.1423   12.0000    1.6688 C   0  0  2  0  0  0  0  0  0  0  0  0
   23.4832   11.3612    2.8072 C   0  0  1  0  0  0  0  0  0  0  0  0
   21.4258   10.8414    0.7013 C   0  0  0  0  0  0  0  0  0  0  0  0
   24.2615   11.7108    3.8293 C   0  0  0  0  0  0  0  0  0  0  0  0
   25.4800   12.2727    3.4514 C   0  0  0  0  0  0  0  0  0  0  0  0
   26.5745   12.0743    4.1892 O   0  0  0  0  0  0  0  0  0  0  0  0
   22.5064   10.0281    0.9281 C   0  0  0  0  0  0  0  0  0  0  0  0
   23.3476   10.2978    1.9035 C   0  0  0  0  0  0  0  0  0  0  0  0
   22.6643    8.8512    0.0676 O   0  0  0  0  0  0  0  0  0  0  0  0
   25.5672   12.8819    2.3534 O   0  0  0  0  0  0  0  0  0  0  0  0
   23.4429    7.8658    0.5211 C   0  0  0  0  0  0  0  0  0  0  0  0
  1  2  1  0
  2  3  1  0
  4  3  1  1
  1  5  1  0
  4  6  1  0
  6  5  1  1
  4  7  1  0
  6  8  1  0
  7  9  1  1
  9 10  1  0
 10 11  1  0
  8 12  1  0
  7 13  1  0
 12 13  1  0
 12 14  1  0
 10 15  2  0
 14 16  1  0
M  END
$$$$
45
     RDKit          3D

 16 16  0  0  0  0  0  0  0  0999 V2000
   20.2373   10.2958    3.6276 C   0  0  0  0  0  0  0  0  0  0  0  0
   21.0646   11.1841    3.3500 C   0  0  0  0  0  0  0  0  0  0  0  0
   21.8035   12.0013    4.1405 C   0  0  2  0  0  0  0  0  0  0  0  0
   19.5084    9.3247    2.8838 C   0  0  0  0  0  0  0  0  0  0  0  0
   20.9422   11.4766    1.8508 C   0  0  0  0  0  0  0  0  0  0  0  0
   19.4735    9.5955    1.5466 C   0  0  0  0  0  0  0  0  0  0  0  0
   21.8509   13.2990    4.0915 O   0  0  0  0  0  0  0  0  0  0  0  0
   20.2161   10.6651    1.0609 C   0  0  0  0  0  0  0  0  0  0  0  0
   23.2084   11.5429    4.1220 O   0  0  0  0  0  0  0  0  0  0  0  0
   24.1531   12.2137    3.4661 C   0  0  0  0  0  0  0  0  0  0  0  0
   24.4370   11.8534    2.1956 C   0  0  0  0  0  0  0  0  0  0  0  0
   25.3142   12.4817    1.3607 C   0  0  0  0  0  0  0  0  0  0  0  0
   20.9427   14.0572    3.8683 C   0  0  0  0  0  0  0  0  0  0  0  0
   25.6829   11.8444    0.2215 O   0  0  0  0  0  0  0  0  0  0  0  0
   23.8104   10.7383    1.6037 O   0  0  0  0  0  0  0  0  0  0  0  0
   25.7855   13.6091    1.6705 O   0  0  0  0  0  0  0  0  0  0  0  0
  1  2  1  0
  2  3  1  0
  1  4  1  0
  2  5  1  0
  4  6  1  0
  3  7  1  6
  5  8  1  0
  6  8  1  0
  3  9  1  0
  9 10  1  0
 10 11  1  0
 11 12  1  0
  7 13  1  0
 12 14  1  0
 11 15  1  0
 12 16  2  0
M  END
$$$$
46
     RDKit          3D

 16 17  0  0  0  0  0  0  0  0999 V2000
   19.7675   12.7267    1.7986 C   0  0  0  0  0  0  0  0  0  0  0  0
   20.3237   11.5430    1.7679 C   0  0  1  0  0  0  0  0  0  0  0  0
   20.2661   13.5642    2.7080 C   0  0  2  0  0  0  0  0  0  0  0  0
   21.3158   11.0728    2.5537 C   0  0  1  0  0  0  0  0  0  0  0  0
   19.6931   10.2790    0.8831 C   0  0  0  0  0  0  0  0  0  0  0  0
   20.1024    9.0092    1.3098 C   0  0  2  0  0  0  0  0  0  0  0  0
   21.7301    9.6780    2.5133 C   0  0  0  0  0  0  0  0  0  0  0  0
   22.1604   11.8325    3.4860 C   0  0  0  0  0  0  0  0  0  0  0  0
   21.1310    8.8106    1.8675 C   0  0  0  0  0  0  0  0  0  0  0  0
   19.7485   14.7990    2.9440 O   0  0  0  0  0  0  0  0  0  0  0  0
   19.1775    8.0146    0.6403 O   0  0  0  0  0  0  0  0  0  0  0  0
   19.2450    6.7178    1.1510 C   0  0  0  0  0  0  0  0  0  0  0  0
   21.5526   13.0444    3.3332 C   0  0  0  0  0  0  0  0  0  0  0  0
   18.0408    6.1453    1.6152 O   0  0  0  0  0  0  0  0  0  0  0  0
   17.4532    5.1588    0.8355 C   0  0  0  0  0  0  0  0  0  0  0  0
   20.3255    5.9385    1.1999 O   0  0  0  0  0  0  0  0  0  0  0  0
  2  1  1  1
  1  3  1  0
  2  4  1  0
  2  5  1  0
  5  6  1  0
  4  7  1  6
  4  8  1  0
  6  9  1  0
  7  9  1  0
  3 10  1  6
  6 11  1  6
 11 12  1  0
  3 13  1  0
  8 13  1  0
 12 14  1  0
 14 15  1  0
 12 16  2  0
M  END
$$$$
47
     RDKit          3D

 16 17  0  0  0  0  0  0  0  0999 V2000
   19.7675   12.7267    1.7986 O   0  0  0  0  0  0  0  0  0  0  0  0
   20.3830   13.2069    2.6641 C   0  0  0  0  0  0  0  0  0  0  0  0
   19.9371   14.0795    3.5924 O   0  0  0  0  0  0  0  0  0  0  0  0
   21.8814   12.8836    2.6825 C   0  0  1  0  0  0  0  0  0  0  0  0
   22.5515   12.9569    3.8650 C   0  0  0  0  0  0  0  0  0  0  0  0
   22.4765   12.2649    1.5585 C   0  0  0  0  0  0  0  0  0  0  0  0
   23.9076   12.6232    3.9934 C   0  0  0  0  0  0  0  0  0  0  0  0
   23.7308   11.8205    1.7120 C   0  0  1  0  0  0  0  0  0  0  0  0
   24.4142   11.2026    0.4981 C   0  0  2  0  0  0  0  0  0  0  0  0
   24.5522   11.9199    2.8475 C   0  0  1  0  0  0  0  0  0  0  0  0
   25.7214   10.9587    0.5723 C   0  0  1  0  0  0  0  0  0  0  0  0
   23.9145   11.2155   -0.7463 O   0  0  0  0  0  0  0  0  0  0  0  0
   25.8830   11.5485    2.8919 C   0  0  1  0  0  0  0  0  0  0  0  0
   26.5692   11.5625    4.1564 C   0  0  0  0  0  0  0  0  0  0  0  0
   26.3586   10.8374    1.8070 C   0  0  0  0  0  0  0  0  0  0  0  0
   26.4125   10.3636   -0.6966 O   0  0  0  0  0  0  0  0  0  0  0  0
  1  2  2  0
  2  3  1  0
  4  2  1  1
  4  5  1  0
  4  6  1  0
  5  7  1  0
  8  6  1  6
  8  9  1  0
 10  7  1  6
  8 10  1  0
  9 11  1  0
  9 12  1  6
 10 13  1  0
 13 14  1  1
 11 15  1  0
 13 15  1  0
 11 16  1  6
M  END
$$$$
48
     RDKit          3D

 16 17  0  0  0  0  0  0  0  0999 V2000
   19.3113   10.3887    1.8376 C   0  0  0  0  0  0  0  0  0  0  0  0
   20.1360   11.3113    1.9473 C   0  0  1  0  0  0  0  0  0  0  0  0
   19.6231    9.0160    1.8552 C   0  0  2  0  0  0  0  0  0  0  0  0
   19.9027   12.7197    1.8357 C   0  0  0  0  0  0  0  0  0  0  0  0
   18.6529    7.9935    1.6949 C   0  0  0  0  0  0  0  0  0  0  0  0
   20.9255    8.6397    2.3270 C   0  0  0  0  0  0  0  0  0  0  0  0
   21.8757    9.7000    2.5182 C   0  0  0  0  0  0  0  0  0  0  0  0
   21.4818   10.9831    2.5266 C   0  0  0  0  0  0  0  0  0  0  0  0
   18.6030    6.7795    2.0320 O   0  0  0  0  0  0  0  0  0  0  0  0
   20.8076   13.6174    2.2354 C   0  0  0  0  0  0  0  0  0  0  0  0
   22.3930   11.9382    3.0829 C   0  0  2  0  0  0  0  0  0  0  0  0
   22.0068   13.3331    2.8335 C   0  0  0  0  0  0  0  0  0  0  0  0
   23.7551   11.6144    3.2312 C   0  0  0  0  0  0  0  0  0  0  0  0
   24.6555   11.6765    2.3572 O   0  0  0  0  0  0  0  0  0  0  0  0
   24.1890   11.7831    4.5429 O   0  0  0  0  0  0  0  0  0  0  0  0
   17.7136    8.2407    0.7551 O   0  0  0  0  0  0  0  0  0  0  0  0
  2  1  1  1
  1  3  1  0
  2  4  1  0
  3  5  1  1
  3  6  1  0
  6  7  1  0
  2  8  1  0
  7  8  1  0
  5  9  2  0
  4 10  1  0
  8 11  1  0
 10 12  1  0
 11 12  1  0
 11 13  1  6
 13 14  2  0
 13 15  1  0
  5 16  1  0
M  END
$$$$
49
     RDKit          3D

 16 18  0  0  0  0  0  0  0  0999 V2000
   17.2999    6.1604    1.3331 O   0  0  0  0  0  0  0  0  0  0  0  0
   18.1597    7.0737    1.1181 C   0  0  0  0  0  0  0  0  0  0  0  0
   18.2143    8.2090    1.7292 N   0  0  0  0  0  0  0  0  0  0  0  0
   19.3261    9.0148    1.9695 C   0  0  0  0  0  0  0  0  0  0  0  0
   19.5075    6.5645    0.7357 C   0  0  0  0  0  0  0  0  0  0  0  0
   20.5302    8.4675    1.5150 C   0  0  1  0  0  0  0  0  0  0  0  0
   19.5748   10.2934    2.5925 N   0  0  0  0  0  0  0  0  0  0  0  0
   21.6755    9.2973    1.8665 C   0  0  0  0  0  0  0  0  0  0  0  0
   20.6895    7.1655    0.9706 C   0  0  0  0  0  0  0  0  0  0  0  0
   20.9576   10.4798    2.4551 C   0  0  2  0  0  0  0  0  0  0  0  0
   21.4677   11.6020    3.1916 C   0  0  0  0  0  0  0  0  0  0  0  0
   20.8734   12.8823    3.0479 C   0  0  0  0  0  0  0  0  0  0  0  0
   22.6205   11.4388    4.0286 C   0  0  0  0  0  0  0  0  0  0  0  0
   23.2582   12.6208    4.4068 C   0  0  0  0  0  0  0  0  0  0  0  0
   21.5051   13.9892    3.6570 C   0  0  0  0  0  0  0  0  0  0  0  0
   22.6565   13.8102    4.3935 C   0  0  0  0  0  0  0  0  0  0  0  0
  1  2  2  0
  2  3  1  0
  3  4  1  0
  2  5  1  0
  4  6  1  0
  4  7  1  0
  6  8  1  1
  5  9  1  0
  6  9  1  0
  7 10  1  0
  8 10  1  0
 10 11  1  1
 11 12  1  0
 11 13  1  0
 13 14  1  0
 12 15  1  0
 14 16  1  0
 15 16  1  0
M  END
$$$$
5
     RDKit          3D

 11 11  0  0  0  0  0  0  0  0999 V2000
   20.2373   10.2958    3.6276 C   0  0  0  0  0  0  0  0  0  0  0  0
   19.8246    9.5252    2.7571 C   0  0  0  0  0  0  0  0  0  0  0  0
   19.9425    9.5699    1.5337 C   0  0  0  0  0  0  0  0  0  0  0  0
   21.0645   11.3286    3.3101 C   0  0  1  0  0  0  0  0  0  0  0  0
   20.6691   10.6533    1.0647 C   0  0  0  0  0  0  0  0  0  0  0  0
   21.2346   11.5435    1.9219 C   0  0  2  0  0  0  0  0  0  0  0  0
   22.0852   12.5789    1.3077 C   0  0  0  0  0  0  0  0  0  0  0  0
   21.7255   12.3187    4.3851 C   0  0  0  0  0  0  0  0  0  0  0  0
   23.0948   12.1787    0.6013 O   0  0  0  0  0  0  0  0  0  0  0  0
   21.6538   13.7962    1.4340 O   0  0  0  0  0  0  0  0  0  0  0  0
   23.0705   12.1411    4.5020 C   0  0  0  0  0  0  0  0  0  0  0  0
  1  2  1  0
  2  3  1  0
  1  4  1  0
  3  5  1  0
  4  6  1  0
  5  6  1  0
  6  7  1  1
  4  8  1  1
  7  9  2  0
  7 10  1  0
  8 11  1  0
M  END
$$$$
50
     RDKit          3D

 16 17  0  0  0  0  0  0  0  0999 V2000
   19.9063   13.3042    2.0507 O   0  0  0  0  0  0  0  0  0  0  0  0
   20.4616   12.6394    2.6260 C   0  0  0  0  0  0  0  0  0  0  0  0
   20.5990   11.2403    2.3535 N   0  0  0  0  0  0  0  0  0  0  0  0
   19.9024   10.6807    1.1884 C   0  0  0  0  0  0  0  0  0  0  0  0
   21.3215   12.9653    3.8216 C   0  0  0  0  0  0  0  0  0  0  0  0
   21.5297   10.3760    2.9410 C   0  0  1  0  0  0  0  0  0  0  0  0
   22.2370   10.8687    4.1280 C   0  0  0  0  0  0  0  0  0  0  0  0
   22.5118   12.3305    4.1203 C   0  0  0  0  0  0  0  0  0  0  0  0
   21.5749    9.1093    2.4261 C   0  0  0  0  0  0  0  0  0  0  0  0
   20.3373    9.4308    1.2405 C   0  0  1  0  0  0  0  0  0  0  0  0
   19.7552    8.2713    0.6518 O   0  0  0  0  0  0  0  0  0  0  0  0
   18.8935    7.4415    1.4544 C   0  0  0  0  0  0  0  0  0  0  0  0
   17.6294    7.3956    1.1453 C   0  0  0  0  0  0  0  0  0  0  0  0
   17.5777    6.1386    0.4007 C   0  0  0  0  0  0  0  0  0  0  0  0
   16.2588    5.6317   -0.0226 O   0  0  0  0  0  0  0  0  0  0  0  0
   18.4819    5.6561   -0.2300 O   0  0  0  0  0  0  0  0  0  0  0  0
  1  2  2  0
  2  3  1  0
  3  4  1  0
  2  5  1  0
  3  6  1  0
  6  7  1  1
  5  8  1  0
  7  8  1  0
  6  9  1  0
  4 10  1  0
  9 10  1  0
 10 11  1  1
 11 12  1  0
 12 13  1  0
 13 14  1  0
 14 15  1  0
 14 16  2  0
M  END
$$$$
51
     RDKit          3D

 16 18  0  0  0  0  0  0  0  0999 V2000
   20.5511   13.0489    4.2262 C   0  0  0  0  0  0  0  0  0  0  0  0
   20.1950   13.5329    2.9723 C   0  0  0  0  0  0  0  0  0  0  0  0
   21.6305   12.2483    4.0610 C   0  0  0  0  0  0  0  0  0  0  0  0
   22.0359   11.8947    3.0366 C   0  0  1  0  0  0  0  0  0  0  0  0
   20.7365   12.9204    1.8837 C   0  0  0  0  0  0  0  0  0  0  0  0
   23.2335   10.8848    2.9867 C   0  0  0  0  0  0  0  0  0  0  0  0
   21.6494   12.0129    1.7293 C   0  0  1  0  0  0  0  0  0  0  0  0
   22.2953   11.2952    0.7923 C   0  0  0  0  0  0  0  0  0  0  0  0
   23.3729   10.5014    1.4983 N   0  0  0  0  0  0  0  0  0  0  0  0
   24.0347   10.4891    3.8600 O   0  0  0  0  0  0  0  0  0  0  0  0
   24.3442    9.6099    1.1920 C   0  0  2  0  0  0  0  0  0  0  0  0
   24.4067    9.4717   -0.1406 C   0  0  1  0  0  0  0  0  0  0  0  0
   24.1254    8.2650    1.6481 C   0  0  0  0  0  0  0  0  0  0  0  0
   23.5502    7.5006    0.6176 C   0  0  0  0  0  0  0  0  0  0  0  0
   25.2791   10.2260   -0.8600 O   0  0  0  0  0  0  0  0  0  0  0  0
   24.2405    8.0907   -0.6632 C   0  0  0  0  0  0  0  0  0  0  0  0
  1  2  1  0
  1  3  1  0
  4  3  1  1
  2  5  1  0
  4  6  1  0
  4  7  1  0
  7  5  1  6
  7  8  1  0
  6  9  1  0
  8  9  1  0
  6 10  2  0
 11  9  1  6
 11 12  1  0
 11 13  1  0
 13 14  1  0
 12 15  1  1
 12 16  1  0
 14 16  1  0
M  END
$$$$
52
     RDKit          3D

 16 17  0  0  0  0  0  0  0  0999 V2000
   20.4601   13.7756    3.6865 C   0  0  0  0  0  0  0  0  0  0  0  0
   21.5224   12.9237    4.0049 C   0  0  0  0  0  0  0  0  0  0  0  0
   22.0326   12.1435    3.2237 C   0  0  1  0  0  0  0  0  0  0  0  0
   23.1805   11.2539    3.4430 C   0  0  0  0  0  0  0  0  0  0  0  0
   21.4372   11.8981    1.7971 C   0  0  1  0  0  0  0  0  0  0  0  0
   22.0600   10.8759    0.8414 C   0  0  0  0  0  0  0  0  0  0  0  0
   23.7562   10.3069    2.5826 C   0  0  0  0  0  0  0  0  0  0  0  0
   23.2108   10.2059    1.3642 C   0  0  1  0  0  0  0  0  0  0  0  0
   20.2381   12.5285    1.3326 C   0  0  1  0  0  0  0  0  0  0  0  0
   23.7376    9.1027    0.4473 C   0  0  0  0  0  0  0  0  0  0  0  0
   19.5362   12.2624    0.4266 O   0  0  0  0  0  0  0  0  0  0  0  0
   19.6964   13.5263    2.3999 C   0  0  0  0  0  0  0  0  0  0  0  0
   23.6296    7.8637    0.8311 O   0  0  0  0  0  0  0  0  0  0  0  0
   24.9592    9.3433   -0.1256 O   0  0  0  0  0  0  0  0  0  0  0  0
   22.5171    7.0150    0.4843 C   0  0  0  0  0  0  0  0  0  0  0  0
   25.3300   10.5777   -0.6835 C   0  0  0  0  0  0  0  0  0  0  0  0
  1  2  1  0
  3  2  1  1
  3  4  1  0
  3  5  1  0
  5  6  1  1
  4  7  1  0
  6  8  1  0
  7  8  1  0
  5  9  1  0
  8 10  1  1
  9 11  1  1
  1 12  1  0
  9 12  1  0
 10 13  1  0
 10 14  1  0
 13 15  1  0
 14 16  1  0
M  END
$$$$
53
     RDKit          3D

 16 18  0  0  0  0  0  0  0  0999 V2000
   19.7690   13.8178    2.5897 C   0  0  0  0  0  0  0  0  0  0  0  0
   20.6672   14.0268    3.5627 C   0  0  0  0  0  0  0  0  0  0  0  0
   21.7885   13.1426    3.6617 C   0  0  0  0  0  0  0  0  0  0  0  0
   22.0249   12.2581    2.5887 C   0  0  2  0  0  0  0  0  0  0  0  0
   20.0965   12.7173    1.7215 C   0  0  0  0  0  0  0  0  0  0  0  0
   21.1423   12.0000    1.6688 C   0  0  2  0  0  0  0  0  0  0  0  0
   23.4832   11.3612    2.8072 C   0  0  2  0  0  0  0  0  0  0  0  0
   21.4258   10.8414    0.7013 C   0  0  0  0  0  0  0  0  0  0  0  0
   24.2615   11.7108    3.8293 C   0  0  0  0  0  0  0  0  0  0  0  0
   25.4722   10.9469    3.8207 C   0  0  2  0  0  0  0  0  0  0  0  0
   26.5198   11.3389    4.6784 C   0  0  0  0  0  0  0  0  0  0  0  0
   23.5352   10.5327    1.8093 C   0  0  2  0  0  0  0  0  0  0  0  0
   20.4268   10.5865   -0.1795 O   0  0  0  0  0  0  0  0  0  0  0  0
   22.5529   10.1557    0.8110 C   0  0  0  0  0  0  0  0  0  0  0  0
   24.7638    9.7323    1.8225 C   0  0  0  0  0  0  0  0  0  0  0  0
   25.7700   10.1704    2.6335 C   0  0  0  0  0  0  0  0  0  0  0  0
  1  2  1  0
  2  3  1  0
  4  3  1  1
  1  5  1  0
  4  6  1  0
  6  5  1  1
  4  7  1  0
  6  8  1  0
  7  9  1  6
  9 10  1  0
 10 11  1  6
  7 12  1  0
  8 13  1  0
  8 14  1  0
 12 14  1  1
 12 15  1  0
 10 16  1  0
 15 16  1  0
M  END
$$$$
54
     RDKit          3D

 16 16  0  0  0  0  0  0  0  0999 V2000
   19.7690   13.8178    2.5897 C   0  0  0  0  0  0  0  0  0  0  0  0
   20.6672   14.0268    3.5627 C   0  0  0  0  0  0  0  0  0  0  0  0
   21.5383   12.9601    3.5566 C   0  0  2  0  0  0  0  0  0  0  0  0
   20.0624   12.6564    1.8653 C   0  0  0  0  0  0  0  0  0  0  0  0
   22.6671   12.9796    4.4557 C   0  0  0  0  0  0  0  0  0  0  0  0
   21.2826   12.1004    2.5243 C   0  0  2  0  0  0  0  0  0  0  0  0
   21.7140   10.7844    2.0483 C   0  0  0  0  0  0  0  0  0  0  0  0
   24.0061   13.0152    3.7168 C   0  0  0  0  0  0  0  0  0  0  0  0
   22.6747   10.7090    1.2254 N   0  0  0  0  0  0  0  0  0  0  0  0
   23.1073   11.8850    0.4996 O   0  0  0  0  0  0  0  0  0  0  0  0
   21.1504    9.5076    2.4248 C   0  0  0  0  0  0  0  0  0  0  0  0
   19.8783    9.1272    1.8557 C   0  0  0  0  0  0  0  0  0  0  0  0
   19.4006    7.7892    2.1303 C   0  0  0  0  0  0  0  0  0  0  0  0
   18.8016    7.1171    1.0997 C   0  0  0  0  0  0  0  0  0  0  0  0
   17.3591    7.2800    0.9282 N   0  0  0  0  0  0  0  0  0  0  0  0
   19.3813    6.5014    0.2887 O   0  0  0  0  0  0  0  0  0  0  0  0
  1  2  1  0
  2  3  1  0
  1  4  1  0
  3  5  1  6
  3  6  1  0
  6  4  1  1
  6  7  1  0
  5  8  1  0
  7  9  2  3
  9 10  1  0
  7 11  1  0
 11 12  1  0
 12 13  1  0
 13 14  1  0
 14 15  1  0
 14 16  2  0
M  END
$$$$
55
     RDKit          3D

 16 16  0  0  0  0  0  0  0  0999 V2000
   19.7690   13.8178    2.5897 C   0  0  0  0  0  0  0  0  0  0  0  0
   20.6672   14.0268    3.5627 C   0  0  0  0  0  0  0  0  0  0  0  0
   21.5383   12.9601    3.5566 C   0  0  2  0  0  0  0  0  0  0  0  0
   20.0624   12.6564    1.8653 C   0  0  0  0  0  0  0  0  0  0  0  0
   22.6671   12.9796    4.4557 C   0  0  0  0  0  0  0  0  0  0  0  0
   21.2826   12.1004    2.5243 C   0  0  2  0  0  0  0  0  0  0  0  0
   21.7140   10.7844    2.0483 C   0  0  0  0  0  0  0  0  0  0  0  0
   24.0061   13.0152    3.7168 C   0  0  0  0  0  0  0  0  0  0  0  0
   22.6747   10.7090    1.2254 N   0  0  0  0  0  0  0  0  0  0  0  0
   23.1073   11.8850    0.4996 O   0  0  0  0  0  0  0  0  0  0  0  0
   21.1504    9.5076    2.4248 C   0  0  0  0  0  0  0  0  0  0  0  0
   19.8783    9.1272    1.8557 C   0  0  1  0  0  0  0  0  0  0  0  0
   19.4006    7.7892    2.1303 C   0  0  0  0  0  0  0  0  0  0  0  0
   19.0283   10.1408    1.2828 O   0  0  0  0  0  0  0  0  0  0  0  0
   18.0974    7.4511    1.7648 O   0  0  0  0  0  0  0  0  0  0  0  0
   17.9324    6.1116    1.3174 C   0  0  0  0  0  0  0  0  0  0  0  0
  1  2  1  0
  2  3  1  0
  1  4  1  0
  3  5  1  6
  3  6  1  0
  6  4  1  1
  6  7  1  0
  5  8  1  0
  7  9  2  3
  9 10  1  0
  7 11  1  0
 11 12  1  0
 12 13  1  0
 12 14  1  1
 13 15  1  0
 15 16  1  0
M  END
$$$$
56
     RDKit          3D

 16 18  0  0  0  0  0  0  0  0999 V2000
   19.3113   10.3887    1.8376 C   0  0  0  0  0  0  0  0  0  0  0  0
   20.1360   11.3113    1.9473 C   0  0  1  0  0  0  0  0  0  0  0  0
   19.6231    9.0160    1.8552 C   0  0  2  0  0  0  0  0  0  0  0  0
   19.9027   12.7197    1.8357 C   0  0  0  0  0  0  0  0  0  0  0  0
   18.6529    7.9935    1.6949 C   0  0  0  0  0  0  0  0  0  0  0  0
   20.9255    8.6397    2.3270 C   0  0  0  0  0  0  0  0  0  0  0  0
   21.8757    9.7000    2.5182 C   0  0  0  0  0  0  0  0  0  0  0  0
   21.4818   10.9831    2.5266 C   0  0  1  0  0  0  0  0  0  0  0  0
   18.6030    6.7795    2.0320 O   0  0  0  0  0  0  0  0  0  0  0  0
   17.5265    8.2736    0.8824 O   0  0  0  0  0  0  0  0  0  0  0  0
   22.4205   12.0340    2.9339 C   0  0  2  0  0  0  0  0  0  0  0  0
   22.0058   13.3750    2.8086 C   0  0  2  0  0  0  0  0  0  0  0  0
   22.9520   14.2961    3.3938 O   0  0  0  0  0  0  0  0  0  0  0  0
   20.8113   13.7273    2.3656 C   0  0  0  0  0  0  0  0  0  0  0  0
   24.0793   13.5698    3.8907 C   0  0  0  0  0  0  0  0  0  0  0  0
   23.7738   12.2211    3.4138 C   0  0  0  0  0  0  0  0  0  0  0  0
  2  1  1  1
  1  3  1  0
  2  4  1  0
  3  5  1  1
  3  6  1  0
  6  7  1  0
  2  8  1  0
  8  7  1  6
  5  9  2  0
  5 10  1  0
  8 11  1  0
 11 12  1  0
 12 13  1  0
  4 14  1  0
 12 14  1  1
 13 15  1  0
 11 16  1  6
 15 16  1  0
M  END
$$$$
57
     RDKit          3D

 17 18  0  0  0  0  0  0  0  0999 V2000
   19.9063   13.3042    2.0507 O   0  0  0  0  0  0  0  0  0  0  0  0
   20.6063   13.2759    2.9330 C   0  0  0  0  0  0  0  0  0  0  0  0
   21.9117   12.5851    2.8589 C   0  0  0  0  0  0  0  0  0  0  0  0
   20.2418   13.7342    4.1470 O   0  0  0  0  0  0  0  0  0  0  0  0
   22.2915   11.9619    1.5853 C   0  0  2  0  0  0  0  0  0  0  0  0
   21.5184   11.9225    0.5472 O   0  0  0  0  0  0  0  0  0  0  0  0
   22.7592   12.5249    3.9717 C   0  0  0  0  0  0  0  0  0  0  0  0
   24.0187   11.8615    3.8050 C   0  0  2  0  0  0  0  0  0  0  0  0
   24.9615   11.8891    4.9104 C   0  0  0  0  0  0  0  0  0  0  0  0
   24.3569   11.2836    2.5766 C   0  0  0  0  0  0  0  0  0  0  0  0
   25.6609   10.6543    2.4342 C   0  0  0  0  0  0  0  0  0  0  0  0
   23.4356   11.2769    1.5307 C   0  0  2  0  0  0  0  0  0  0  0  0
   23.7484   10.5743    0.2745 C   0  0  0  0  0  0  0  0  0  0  0  0
   26.2150   11.2894    4.7124 C   0  0  0  0  0  0  0  0  0  0  0  0
   26.5715   10.6989    3.4841 C   0  0  0  0  0  0  0  0  0  0  0  0
   24.8968   10.3468   -0.1027 O   0  0  0  0  0  0  0  0  0  0  0  0
   22.6840    9.8747   -0.1945 O   0  0  0  0  0  0  0  0  0  0  0  0
  1  2  2  0
  2  3  1  0
  2  4  1  0
  3  5  1  0
  5  6  1  1
  3  7  1  0
  8  7  1  6
  8  9  1  0
  8 10  1  0
 10 11  1  0
  5 12  1  0
 10 12  1  0
 12 13  1  6
  9 14  1  0
 11 15  1  0
 14 15  1  0
 13 16  1  0
 13 17  2  0
M  END
$$$$
58
     RDKit          3D

 17 19  0  0  0  0  0  0  0  0999 V2000
   20.0029   12.5200    1.5151 C   0  0  0  0  0  0  0  0  0  0  0  0
   20.2135   13.2820    2.5337 C   0  0  0  0  0  0  0  0  0  0  0  0
   21.1980   13.0336    3.3092 C   0  0  2  0  0  0  0  0  0  0  0  0
   21.5644   13.9831    4.4546 C   0  0  0  0  0  0  0  0  0  0  0  0
   22.0206   11.8986    3.0611 C   0  0  1  0  0  0  0  0  0  0  0  0
   21.6781   11.0523    2.0339 C   0  0  0  0  0  0  0  0  0  0  0  0
   20.5480   11.4026    1.2163 C   0  0  0  0  0  0  0  0  0  0  0  0
   22.4226    9.7828    1.7719 C   0  0  2  0  0  0  0  0  0  0  0  0
   23.7329    9.7608    1.9403 C   0  0  1  0  0  0  0  0  0  0  0  0
   22.1748    8.9543    0.5680 C   0  0  0  0  0  0  0  0  0  0  0  0
   24.3693   10.7288    2.7836 C   0  0  1  0  0  0  0  0  0  0  0  0
   23.3956   11.6327    3.5328 C   0  0  0  0  0  0  0  0  0  0  0  0
   25.6384   10.5968    3.1900 O   0  0  0  0  0  0  0  0  0  0  0  0
   24.2429    8.4795    1.7553 N   0  0  0  0  0  0  0  0  0  0  0  0
   23.2839    7.9740    0.7720 C   0  0  0  0  0  0  0  0  0  0  0  0
   23.4627    6.7559    0.1398 O   0  0  0  0  0  0  0  0  0  0  0  0
   23.5196    5.6573    0.7331 C   0  0  0  0  0  0  0  0  0  0  0  0
  1  2  1  0
  2  3  1  0
  3  4  1  6
  3  5  1  0
  5  6  1  0
  1  7  1  0
  6  7  1  0
  6  8  1  0
  8  9  1  0
  8 10  1  6
  9 11  1  0
  5 12  1  6
 11 12  1  0
 11 13  1  1
  9 14  1  1
 10 15  1  0
 14 15  1  0
 15 16  1  0
 16 17  1  0
M  END
$$$$
59
     RDKit          3D

 17 18  0  0  0  0  0  0  0  0999 V2000
   20.3387   13.2831    1.9878 C   0  0  0  0  0  0  0  0  0  0  0  0
   20.3973   13.7338    3.2744 C   0  0  0  0  0  0  0  0  0  0  0  0
   21.4453   13.1071    4.0933 C   0  0  0  0  0  0  0  0  0  0  0  0
   20.9160   12.0920    1.7266 C   0  0  0  0  0  0  0  0  0  0  0  0
   21.6645   11.5423    2.5435 C   0  0  0  0  0  0  0  0  0  0  0  0
   22.3692   10.2037    2.1310 C   0  0  0  0  0  0  0  0  0  0  0  0
   22.0200   12.0056    3.7476 C   0  0  0  0  0  0  0  0  0  0  0  0
   21.5646    9.1210    1.8845 N   0  0  0  0  0  0  0  0  0  0  0  0
   23.6092   10.1217    2.0376 O   0  0  0  0  0  0  0  0  0  0  0  0
   20.1369    9.0847    2.1396 C   0  0  0  0  0  0  0  0  0  0  0  0
   19.5568   10.0379    2.7645 O   0  0  0  0  0  0  0  0  0  0  0  0
   19.3999    7.9510    1.9296 C   0  0  0  0  0  0  0  0  0  0  0  0
   18.1914    7.9953    1.2933 C   0  0  0  0  0  0  0  0  0  0  0  0
   19.9211    6.6263    2.0583 C   0  0  0  0  0  0  0  0  0  0  0  0
   18.9245    5.5605    1.6383 C   0  0  0  0  0  0  0  0  0  0  0  0
   17.3520    7.0337    0.9580 C   0  0  0  0  0  0  0  0  0  0  0  0
   17.7413    5.7410    1.1605 C   0  0  0  0  0  0  0  0  0  0  0  0
  1  2  1  0
  2  3  1  0
  1  4  1  0
  4  5  1  0
  5  6  1  0
  3  7  1  0
  5  7  1  0
  6  8  1  0
  6  9  2  0
  8 10  1  0
 10 11  2  0
 10 12  1  0
 12 13  1  0
 12 14  1  0
 14 15  1  0
 13 16  1  0
 15 17  1  0
 16 17  1  0
M  END
$$$$
6
     RDKit          3D

 11 11  0  0  0  0  0  0  0  0999 V2000
   19.8849   14.1641    3.2156 C   0  0  0  0  0  0  0  0  0  0  0  0
   20.7161   13.2054    3.1390 C   0  0  2  0  0  0  0  0  0  0  0  0
   21.4640   12.6838    4.2230 C   0  0  0  0  0  0  0  0  0  0  0  0
   21.2393   12.7926    1.8337 C   0  0  2  0  0  0  0  0  0  0  0  0
   22.4398   11.6768    4.0646 C   0  0  0  0  0  0  0  0  0  0  0  0
   22.8435   11.2122    2.8422 C   0  0  1  0  0  0  0  0  0  0  0  0
   20.5247   13.1025    0.7930 F   0  0  0  0  0  0  0  0  0  0  0  0
   22.3089   11.9900    1.5659 C   0  0  0  0  0  0  0  0  0  0  0  0
   23.9849   10.3637    2.6102 C   0  0  0  0  0  0  0  0  0  0  0  0
   23.7992    9.3559    1.7018 O   0  0  0  0  0  0  0  0  0  0  0  0
   25.0294   10.4329    3.1544 O   0  0  0  0  0  0  0  0  0  0  0  0
  2  1  1  6
  2  3  1  0
  2  4  1  0
  3  5  1  0
  5  6  1  0
  4  7  1  6
  4  8  1  0
  6  8  1  0
  6  9  1  1
  9 10  1  0
  9 11  2  0
M  END
$$$$
60
     RDKit          3D

 17 17  0  0  0  0  0  0  0  0999 V2000
   19.3113   10.3887    1.8376 C   0  0  0  0  0  0  0  0  0  0  0  0
   20.1360   11.3113    1.9473 C   0  0  0  0  0  0  0  0  0  0  0  0
   19.6231    9.0160    1.8552 C   0  0  0  0  0  0  0  0  0  0  0  0
   21.4918   10.8875    2.2998 C   0  0  0  0  0  0  0  0  0  0  0  0
   21.8518    9.5541    2.3406 C   0  0  0  0  0  0  0  0  0  0  0  0
   22.5492   12.0403    2.2251 C   0  0  2  0  0  0  0  0  0  0  0  0
   22.8486   12.5397    3.4156 C   0  0  0  0  0  0  0  0  0  0  0  0
   24.1208   13.2430    3.3866 C   0  0  0  0  0  0  0  0  0  0  0  0
   22.3519   12.8771    1.1303 O   0  0  0  0  0  0  0  0  0  0  0  0
   20.9033    8.6568    2.0493 C   0  0  0  0  0  0  0  0  0  0  0  0
   18.5662    8.0007    1.6729 N   0  0  0  0  0  0  0  0  0  0  0  0
   18.6510    6.7500    1.9237 N   0  0  0  0  0  0  0  0  0  0  0  0
   22.7458   11.6527    4.5715 C   0  0  0  0  0  0  0  0  0  0  0  0
   17.6930    5.9929    1.2553 C   0  0  0  0  0  0  0  0  0  0  0  0
   17.4950    4.6943    1.8938 C   0  0  0  0  0  0  0  0  0  0  0  0
   21.7863   13.7080    3.7223 C   0  0  0  0  0  0  0  0  0  0  0  0
   17.1057    6.3914    0.4709 O   0  0  0  0  0  0  0  0  0  0  0  0
  1  2  1  0
  1  3  1  0
  2  4  1  0
  4  5  1  0
  4  6  1  0
  6  7  1  0
  7  8  1  0
  6  9  1  6
  3 10  1  0
  5 10  1  0
  3 11  1  0
 11 12  1  0
  7 13  1  0
 12 14  1  0
 14 15  1  0
  7 16  1  0
 14 17  2  0
M  END
$$$$
61
     RDKit          3D

 17 19  0  0  0  0  0  0  0  0999 V2000
   19.9063   13.3042    2.0507 O   0  0  0  0  0  0  0  0  0  0  0  0
   20.6063   13.2759    2.9330 C   0  0  0  0  0  0  0  0  0  0  0  0
   21.9117   12.5851    2.8589 C   0  0  0  0  0  0  0  0  0  0  0  0
   20.2418   13.7342    4.1470 O   0  0  0  0  0  0  0  0  0  0  0  0
   22.2915   11.9619    1.5853 C   0  0  2  0  0  0  0  0  0  0  0  0
   21.5184   11.9225    0.5472 O   0  0  0  0  0  0  0  0  0  0  0  0
   22.7592   12.5249    3.9717 C   0  0  0  0  0  0  0  0  0  0  0  0
   23.3729   11.0271    1.6750 C   0  0  2  0  0  0  0  0  0  0  0  0
   24.2576   11.0142    2.7800 C   0  0  0  0  0  0  0  0  0  0  0  0
   23.9677   11.7230    3.7941 C   0  0  0  0  0  0  0  0  0  0  0  0
   25.4075   10.1839    2.7139 C   0  0  0  0  0  0  0  0  0  0  0  0
   23.8101   10.2043    0.5730 C   0  0  2  0  0  0  0  0  0  0  0  0
   22.7763   10.1212   -0.5967 C   0  0  2  0  0  0  0  0  0  0  0  0
   24.8516    9.3994    0.4717 C   0  0  0  0  0  0  0  0  0  0  0  0
   23.2608    9.6111   -1.6727 O   0  0  0  0  0  0  0  0  0  0  0  0
   25.7020    9.4247    1.6129 C   0  0  0  0  0  0  0  0  0  0  0  0
   21.6758   11.0237   -0.4955 C   0  0  0  0  0  0  0  0  0  0  0  0
  1  2  2  0
  2  3  1  0
  2  4  1  0
  3  5  1  0
  5  6  1  1
  3  7  1  0
  5  8  1  0
  8  9  1  6
  7 10  1  0
  9 10  1  0
  9 11  1  0
  8 12  1  0
 12 13  1  0
 12 14  1  1
 13 15  1  6
 11 16  1  0
 14 16  1  0
  6 17  1  0
 13 17  1  0
M  END
$$$$
62
     RDKit          3D

 17 19  0  0  0  0  0  0  0  0999 V2000
   20.5762   13.2493    3.9391 C   0  0  0  0  0  0  0  0  0  0  0  0
   21.3673   12.1743    4.0268 C   0  0  2  0  0  0  0  0  0  0  0  0
   22.1829   11.9226    4.9402 N   0  0  0  0  0  0  0  0  0  0  0  0
   21.7752   11.6924    2.6736 N   0  0  0  0  0  0  0  0  0  0  0  0
   20.9918   12.2000    1.6388 C   0  0  0  0  0  0  0  0  0  0  0  0
   19.9668   13.5734    2.6452 C   0  0  0  0  0  0  0  0  0  0  0  0
   20.3016   12.9075    1.6384 N   0  0  0  0  0  0  0  0  0  0  0  0
   21.4143   11.3333    0.3585 N   0  0  0  0  0  0  0  0  0  0  0  0
   22.8590   10.6166    2.6981 C   0  0  2  0  0  0  0  0  0  0  0  0
   18.9901   14.5711    2.7305 O   0  0  0  0  0  0  0  0  0  0  0  0
   23.7218   10.7322    3.5660 O   0  0  0  0  0  0  0  0  0  0  0  0
   23.4638   10.3320    1.5683 C   0  0  1  0  0  0  0  0  0  0  0  0
   22.5215   10.6073    0.2045 C   0  0  0  0  0  0  0  0  0  0  0  0
   25.0002   10.5009    2.9080 C   0  0  2  0  0  0  0  0  0  0  0  0
   24.7162   10.0558    1.7284 C   0  0  0  0  0  0  0  0  0  0  0  0
   23.1063   10.0457   -0.7703 O   0  0  0  0  0  0  0  0  0  0  0  0
   26.0221    9.7672    3.6042 C   0  0  0  0  0  0  0  0  0  0  0  0
  1  2  1  0
  2  3  1  1
  2  4  1  0
  4  5  1  0
  1  6  1  0
  5  7  1  0
  6  7  1  0
  5  8  1  0
  4  9  1  0
  6 10  2  0
  9 11  1  1
  9 12  1  0
  8 13  1  0
 12 13  1  0
 11 14  1  0
 12 15  1  6
 14 15  1  0
 13 16  2  0
 14 17  1  1
M  END
$$$$
63
     RDKit          3D

 17 18  0  0  0  0  0  0  0  0999 V2000
   20.7814   12.4946    4.0990 C   0  0  0  0  0  0  0  0  0  0  0  0
   20.4057   13.0742    3.0328 C   0  0  0  0  0  0  0  0  0  0  0  0
   21.5469   11.2700    3.9847 C   0  0  0  0  0  0  0  0  0  0  0  0
   20.6444   12.6591    1.7393 C   0  0  0  0  0  0  0  0  0  0  0  0
   19.6421   14.4415    3.1944 C   0  0  0  0  0  0  0  0  0  0  0  0
   21.2842   11.3993    1.5603 C   0  0  2  0  0  0  0  0  0  0  0  0
   21.7119   10.7359    2.6765 C   0  0  0  0  0  0  0  0  0  0  0  0
   21.6353   10.8586    0.0440 C   0  0  0  0  0  0  0  0  0  0  0  0
   22.8086   11.4153   -0.3661 O   0  0  0  0  0  0  0  0  0  0  0  0
   22.4199    9.2535    2.5201 C   0  0  0  0  0  0  0  0  0  0  0  0
   21.6982    8.3615    1.7275 C   0  0  0  0  0  0  0  0  0  0  0  0
   20.3061    8.7043    1.4353 O   0  0  0  0  0  0  0  0  0  0  0  0
   19.3714    7.6121    1.8094 C   0  0  2  0  0  0  0  0  0  0  0  0
   19.7350    6.3879    1.5670 O   0  0  0  0  0  0  0  0  0  0  0  0
   18.0494    7.7654    1.0898 C   0  0  0  0  0  0  0  0  0  0  0  0
   18.7086    5.5112    1.5644 C   0  0  0  0  0  0  0  0  0  0  0  0
   17.5770    6.3749    1.1572 C   0  0  0  0  0  0  0  0  0  0  0  0
  1  2  1  0
  1  3  1  0
  2  4  1  0
  2  5  1  0
  4  6  1  0
  3  7  1  0
  6  7  1  0
  6  8  1  6
  8  9  1  0
  7 10  1  0
 10 11  1  0
 11 12  1  0
 13 12  1  6
 13 14  1  0
 13 15  1  0
 14 16  1  0
 15 17  1  0
 16 17  1  0
M  END
$$$$
64
     RDKit          3D

 17 18  0  0  0  0  0  0  0  0999 V2000
   20.2373   10.2958    3.6276 C   0  0  0  0  0  0  0  0  0  0  0  0
   21.0646   11.1841    3.3500 C   0  0  1  0  0  0  0  0  0  0  0  0
   19.6845    9.2908    2.7930 C   0  0  0  0  0  0  0  0  0  0  0  0
   21.2450   11.2809    1.8598 C   0  0  1  0  0  0  0  0  0  0  0  0
   21.7088   12.2534    4.0795 C   0  0  0  0  0  0  0  0  0  0  0  0
   22.7884   12.1827    4.5414 C   0  0  0  0  0  0  0  0  0  0  0  0
   20.8338   13.4647    4.1567 C   0  0  0  0  0  0  0  0  0  0  0  0
   24.1037   12.3149    3.8948 C   0  0  0  0  0  0  0  0  0  0  0  0
   24.2443   12.4924    2.3614 C   0  0  0  0  0  0  0  0  0  0  0  0
   22.1884   12.2569    1.2454 C   0  0  0  0  0  0  0  0  0  0  0  0
   25.6640   12.6695    2.1100 C   0  0  0  0  0  0  0  0  0  0  0  0
   26.0425   12.2998    0.9157 C   0  0  0  0  0  0  0  0  0  0  0  0
   27.3159   12.3461    0.4796 O   0  0  0  0  0  0  0  0  0  0  0  0
   25.1938   11.5608    0.1169 O   0  0  0  0  0  0  0  0  0  0  0  0
   19.9935    9.3923    1.4082 C   0  0  0  0  0  0  0  0  0  0  0  0
   23.4027   12.4963    1.4340 C   0  0  0  0  0  0  0  0  0  0  0  0
   20.7756   10.3721    1.0104 C   0  0  0  0  0  0  0  0  0  0  0  0
  2  1  1  6
  1  3  1  0
  2  4  1  0
  2  5  1  0
  5  6  1  0
  5  7  1  0
  6  8  2  3
  8  9  1  0
  4 10  1  1
  9 11  1  0
 11 12  1  0
 12 13  1  0
 12 14  1  0
  3 15  1  0
  9 16  2  3
 10 16  1  0
  4 17  1  0
 15 17  1  0
M  END
$$$$
65
     RDKit          3D

 17 19  0  0  0  0  0  0  0  0999 V2000
   19.9063   13.3042    2.0507 O   0  0  0  0  0  0  0  0  0  0  0  0
   20.4616   12.6394    2.6260 C   0  0  0  0  0  0  0  0  0  0  0  0
   20.5990   11.2403    2.3535 N   0  0  0  0  0  0  0  0  0  0  0  0
   19.9024   10.6807    1.1884 C   0  0  0  0  0  0  0  0  0  0  0  0
   21.3215   12.9653    3.8216 C   0  0  0  0  0  0  0  0  0  0  0  0
   21.5297   10.3760    2.9410 C   0  0  1  0  0  0  0  0  0  0  0  0
   22.2370   10.8687    4.1280 C   0  0  0  0  0  0  0  0  0  0  0  0
   22.5118   12.3305    4.1203 C   0  0  0  0  0  0  0  0  0  0  0  0
   21.5749    9.1093    2.4261 C   0  0  0  0  0  0  0  0  0  0  0  0
   20.3373    9.4308    1.2405 C   0  0  1  0  0  0  0  0  0  0  0  0
   19.7552    8.2713    0.6518 O   0  0  0  0  0  0  0  0  0  0  0  0
   18.8935    7.4415    1.4544 C   0  0  0  0  0  0  0  0  0  0  0  0
   17.6294    7.3956    1.1453 C   0  0  0  0  0  0  0  0  0  0  0  0
   17.5777    6.1386    0.4007 C   0  0  0  0  0  0  0  0  0  0  0  0
   18.0480    5.0852    1.1455 C   0  0  0  0  0  0  0  0  0  0  0  0
   19.3508    5.1836    1.7102 C   0  0  0  0  0  0  0  0  0  0  0  0
   19.6778    6.4324    1.9256 C   0  0  0  0  0  0  0  0  0  0  0  0
  1  2  2  0
  2  3  1  0
  3  4  1  0
  2  5  1  0
  3  6  1  0
  6  7  1  1
  5  8  1  0
  7  8  1  0
  6  9  1  0
  4 10  1  0
  9 10  1  0
 10 11  1  1
 11 12  1  0
 12 13  1  0
 13 14  1  0
 14 15  1  0
 15 16  1  0
 12 17  1  0
 16 17  1  0
M  END
$$$$
66
     RDKit          3D

 17 19  0  0  0  0  0  0  0  0999 V2000
   19.7675   12.7267    1.7986 C   0  0  0  0  0  0  0  0  0  0  0  0
   20.3237   11.5430    1.7679 C   0  0  2  0  0  0  0  0  0  0  0  0
   21.0679   11.0397    2.8238 C   0  0  1  0  0  0  0  0  0  0  0  0
   20.9504   10.8850    0.5954 O   0  0  0  0  0  0  0  0  0  0  0  0
   21.7993    9.7990    1.1063 C   0  0  1  0  0  0  0  0  0  0  0  0
   20.6205   11.1579    4.1122 O   0  0  0  0  0  0  0  0  0  0  0  0
   20.1015   13.6676    2.9085 C   0  0  0  0  0  0  0  0  0  0  0  0
   22.6936    9.2896    0.5257 N   0  0  0  0  0  0  0  0  0  0  0  0
   21.8732    9.9363    2.6303 C   0  0  0  0  0  0  0  0  0  0  0  0
   23.0064    9.4787   -0.9381 C   0  0  0  0  0  0  0  0  0  0  0  0
   23.8783    8.6286   -1.4749 C   0  0  2  0  0  0  0  0  0  0  0  0
   23.3086    8.0020    0.7012 C   0  0  0  0  0  0  0  0  0  0  0  0
   24.1382    7.7114   -0.3804 C   0  0  1  0  0  0  0  0  0  0  0  0
   24.5139    8.6506   -2.7651 C   0  0  0  0  0  0  0  0  0  0  0  0
   24.9880    6.5979   -0.6082 C   0  0  0  0  0  0  0  0  0  0  0  0
   25.6367    6.5557   -1.9321 C   0  0  0  0  0  0  0  0  0  0  0  0
   25.3412    7.7299   -2.9435 C   0  0  0  0  0  0  0  0  0  0  0  0
  2  1  1  6
  2  3  1  0
  2  4  1  0
  4  5  1  0
  3  6  1  1
  1  7  1  0
  5  8  1  6
  3  9  1  0
  5  9  1  0
  8 10  1  0
 11 10  1  1
  8 12  1  0
 11 13  1  0
 13 12  1  6
 11 14  1  0
 13 15  1  0
 15 16  1  0
 14 17  1  0
 16 17  1  0
M  END
$$$$
67
     RDKit          3D

 17 18  0  0  0  0  0  0  0  0999 V2000
   20.5511   13.0489    4.2262 O   0  0  0  0  0  0  0  0  0  0  0  0
   21.2003   12.6789    3.3045 C   0  0  0  0  0  0  0  0  0  0  0  0
   20.6274   12.5592    1.9754 C   0  0  2  0  0  0  0  0  0  0  0  0
   22.6300   12.5448    3.4115 N   0  0  0  0  0  0  0  0  0  0  0  0
   19.3331   12.7058    1.7824 O   0  0  0  0  0  0  0  0  0  0  0  0
   21.2826   11.4700    1.1619 C   0  0  2  0  0  0  0  0  0  0  0  0
   22.8511   11.4014    1.3639 C   0  0  1  0  0  0  0  0  0  0  0  0
   23.2191   12.8042    4.5128 C   0  0  0  0  0  0  0  0  0  0  0  0
   20.7164   10.7491    0.2601 O   0  0  0  0  0  0  0  0  0  0  0  0
   23.3462   11.5742    2.7190 C   0  0  2  0  0  0  0  0  0  0  0  0
   23.3514   10.1617    3.2146 C   0  0  0  0  0  0  0  0  0  0  0  0
   24.0625    9.2446    2.3125 C   0  0  0  0  0  0  0  0  0  0  0  0
   23.3252   10.1893    0.6787 C   0  0  0  0  0  0  0  0  0  0  0  0
   23.8054    9.1699    1.1658 C   0  0  0  0  0  0  0  0  0  0  0  0
   23.2528   10.2431   -0.9428 C   0  0  0  0  0  0  0  0  0  0  0  0
   23.7969    9.2295   -1.5355 O   0  0  0  0  0  0  0  0  0  0  0  0
   23.4518   11.4004   -1.6404 O   0  0  0  0  0  0  0  0  0  0  0  0
  1  2  2  0
  2  3  1  0
  2  4  1  0
  3  5  1  1
  3  6  1  0
  6  7  1  0
  4  8  1  0
  6  9  1  6
  4 10  1  0
  7 10  1  0
 10 11  1  1
 11 12  1  0
  7 13  1  1
 12 14  1  0
 13 14  1  0
 13 15  1  0
 15 16  1  0
 15 17  2  0
M  END
$$$$
68
     RDKit          3D

 17 19  0  0  0  0  0  0  0  0999 V2000
   19.8467   11.4301    1.6706 C   0  0  0  0  0  0  0  0  0  0  0  0
   20.2323   10.2662    2.4416 N   0  0  0  0  0  0  0  0  0  0  0  0
   20.2350   12.6189    2.1063 C   0  0  0  0  0  0  0  0  0  0  0  0
   21.0327   12.8197    3.2395 C   0  0  0  0  0  0  0  0  0  0  0  0
   21.4551   14.0842    3.7837 C   0  0  0  0  0  0  0  0  0  0  0  0
   21.0108   10.4438    3.5920 C   0  0  0  0  0  0  0  0  0  0  0  0
   21.3695   11.5536    3.8705 C   0  0  0  0  0  0  0  0  0  0  0  0
   19.7611    8.9876    1.9487 C   0  0  1  0  0  0  0  0  0  0  0  0
   20.5624    7.9615    1.8536 C   0  0  0  0  0  0  0  0  0  0  0  0
   18.5002    8.8130    1.6547 N   0  0  0  0  0  0  0  0  0  0  0  0
   19.7728    6.8326    1.2361 C   0  0  2  0  0  0  0  0  0  0  0  0
   18.4386    7.4270    1.2487 C   0  0  0  0  0  0  0  0  0  0  0  0
   20.1411    5.3727    0.8559 C   0  0  1  0  0  0  0  0  0  0  0  0
   21.4228    4.9817    0.8383 C   0  0  0  0  0  0  0  0  0  0  0  0
   17.4003    6.5893    0.8854 N   0  0  0  0  0  0  0  0  0  0  0  0
   19.0218    4.7451    0.7642 N   0  0  0  0  0  0  0  0  0  0  0  0
   17.6838    5.2443    0.6596 C   0  0  0  0  0  0  0  0  0  0  0  0
  1  2  1  0
  1  3  1  0
  3  4  1  0
  4  5  1  0
  2  6  1  0
  4  7  1  0
  6  7  1  0
  8  2  1  1
  8  9  1  0
  8 10  1  0
 11  9  1  1
 10 12  1  0
 11 12  1  0
 11 13  1  0
 13 14  1  1
 12 15  1  0
 13 16  1  0
 15 17  1  0
 16 17  1  0
M  END
$$$$
69
     RDKit          3D

 17 19  0  0  0  0  0  0  0  0999 V2000
   19.6036   11.9133    1.6517 C   0  0  0  0  0  0  0  0  0  0  0  0
   20.1667   12.9156    2.3106 C   0  0  0  0  0  0  0  0  0  0  0  0
   20.3935   10.8345    1.6498 C   0  0  2  0  0  0  0  0  0  0  0  0
   19.9197    9.5599    1.0200 N   0  0  0  0  0  0  0  0  0  0  0  0
   20.6064    8.4375    1.2071 C   0  0  1  0  0  0  0  0  0  0  0  0
   20.0936    7.2025    0.8766 C   0  0  0  0  0  0  0  0  0  0  0  0
   21.1469   12.7145    3.0115 C   0  0  2  0  0  0  0  0  0  0  0  0
   22.0692    8.5800    1.3365 C   0  0  0  0  0  0  0  0  0  0  0  0
   21.5697   10.6171    2.3662 C   0  0  1  0  0  0  0  0  0  0  0  0
   19.2231    6.6948    1.5683 C   0  0  0  0  0  0  0  0  0  0  0  0
   20.7647    6.2116    0.1324 C   0  0  0  0  0  0  0  0  0  0  0  0
   20.2179    4.8639    0.1769 C   0  0  0  0  0  0  0  0  0  0  0  0
   18.5774    5.5540    1.5600 C   0  0  0  0  0  0  0  0  0  0  0  0
   19.1489    4.5781    0.8740 C   0  0  0  0  0  0  0  0  0  0  0  0
   22.5366    9.5556    1.7752 N   0  0  0  0  0  0  0  0  0  0  0  0
   21.8319   13.9117    3.8323 C   0  0  0  0  0  0  0  0  0  0  0  0
   22.1324   11.6142    2.7991 C   0  0  0  0  0  0  0  0  0  0  0  0
  1  2  1  0
  3  1  1  1
  3  4  1  0
  4  5  1  0
  5  6  1  6
  2  7  1  0
  5  8  1  0
  3  9  1  0
  6 10  1  0
  6 11  1  0
 11 12  1  0
 10 13  1  0
 12 14  1  0
 13 14  1  0
  8 15  1  0
  9 15  1  0
  7 16  1  6
  7 17  1  0
  9 17  1  6
M  END
$$$$
7
     RDKit          3D

 11 11  0  0  0  0  0  0  0  0999 V2000
   23.5534   11.4426    3.9595 C   0  0  0  0  0  0  0  0  0  0  0  0
   22.3523   11.5610    3.9625 C   0  0  0  0  0  0  0  0  0  0  0  0
   21.6148   12.4491    3.4979 C   0  0  1  0  0  0  0  0  0  0  0  0
   22.2918   13.3511    2.5256 C   0  0  0  0  0  0  0  0  0  0  0  0
   24.3692   12.2681    3.0908 C   0  0  1  0  0  0  0  0  0  0  0  0
   23.6661   13.2222    2.3974 C   0  0  0  0  0  0  0  0  0  0  0  0
   20.1384   12.5072    3.3391 O   0  0  0  0  0  0  0  0  0  0  0  0
   19.5473   13.1935    2.3530 C   0  0  0  0  0  0  0  0  0  0  0  0
   26.0326   12.1846    3.0890 C   0  0  0  0  0  0  0  0  0  0  0  0
   26.4257   12.6427    1.9762 O   0  0  0  0  0  0  0  0  0  0  0  0
   26.5656   11.3688    3.8146 O   0  0  0  0  0  0  0  0  0  0  0  0
  1  2  1  0
  2  3  1  0
  3  4  1  0
  1  5  1  0
  4  6  1  0
  5  6  1  0
  3  7  1  6
  7  8  1  0
  5  9  1  1
  9 10  2  0
  9 11  1  0
M  END
$$$$
70
     RDKit          3D

 17 18  0  0  0  0  0  0  0  0999 V2000
   16.6357    6.3304    0.5558 C   0  0  1  0  0  0  0  0  0  0  0  0
   17.6336    7.2059    0.8616 C   0  0  0  0  0  0  0  0  0  0  0  0
   18.6006    6.8208    1.7278 C   0  0  1  0  0  0  0  0  0  0  0  0
   18.6219    5.4318    1.9959 C   0  0  0  0  0  0  0  0  0  0  0  0
   19.7292    7.6455    2.0906 C   0  0  0  0  0  0  0  0  0  0  0  0
   15.6500    6.8058   -0.4538 N   0  0  0  0  0  0  0  0  0  0  0  0
   19.3885    8.8825    2.6513 C   0  0  0  0  0  0  0  0  0  0  0  0
   17.9063    4.6197    1.6175 C   0  0  0  0  0  0  0  0  0  0  0  0
   20.3898    9.9373    2.6225 C   0  0  1  0  0  0  0  0  0  0  0  0
   21.2784   10.1328    3.5223 C   0  0  0  0  0  0  0  0  0  0  0  0
   16.7234    5.0013    0.8265 C   0  0  0  0  0  0  0  0  0  0  0  0
   20.7542   10.4005    1.2422 C   0  0  0  0  0  0  0  0  0  0  0  0
   21.7055   11.3304    1.1020 C   0  0  0  0  0  0  0  0  0  0  0  0
   22.3244   11.0910    3.4429 C   0  0  2  0  0  0  0  0  0  0  0  0
   23.1782   11.4773    4.4724 C   0  0  0  0  0  0  0  0  0  0  0  0
   22.3778   11.8169    2.1980 C   0  0  0  0  0  0  0  0  0  0  0  0
   23.7179   12.6568    4.6275 O   0  0  0  0  0  0  0  0  0  0  0  0
  1  2  1  0
  2  3  1  0
  3  4  1  0
  3  5  1  6
  1  6  1  6
  5  7  1  0
  4  8  1  0
  9  7  1  6
  9 10  1  0
  1 11  1  0
  8 11  1  0
  9 12  1  0
 12 13  1  0
 10 14  1  0
 14 15  1  1
 13 16  1  0
 14 16  1  0
 15 17  1  0
M  END
$$$$
71
     RDKit          3D

 17 18  0  0  0  0  0  0  0  0999 V2000
   19.7675   12.7267    1.7986 C   0  0  0  0  0  0  0  0  0  0  0  0
   20.3237   11.5430    1.7679 C   0  0  1  0  0  0  0  0  0  0  0  0
   21.0679   11.0397    2.8238 C   0  0  0  0  0  0  0  0  0  0  0  0
   20.1515   13.6673    2.7629 C   0  0  0  0  0  0  0  0  0  0  0  0
   21.5458   11.9823    3.7225 C   0  0  0  0  0  0  0  0  0  0  0  0
   21.3881    9.6483    3.0720 C   0  0  0  0  0  0  0  0  0  0  0  0
   22.4496   11.6151    4.7393 N   0  0  0  0  0  0  0  0  0  0  0  0
   21.1372   13.3430    3.6709 C   0  0  0  0  0  0  0  0  0  0  0  0
   20.2036    8.7772    2.6955 C   0  0  0  0  0  0  0  0  0  0  0  0
   19.5816    8.6396    1.5963 C   0  0  2  0  0  0  0  0  0  0  0  0
   20.0210   10.6120    0.4796 C   0  0  0  0  0  0  0  0  0  0  0  0
   19.4223    9.5592    0.6319 C   0  0  0  0  0  0  0  0  0  0  0  0
   18.6077    7.5497    1.6647 O   0  0  0  0  0  0  0  0  0  0  0  0
   18.7230    6.5803    1.0853 C   0  0  2  0  0  0  0  0  0  0  0  0
   17.6644    5.6585    1.1589 C   0  0  0  0  0  0  0  0  0  0  0  0
   17.9111    4.5783    2.1136 O   0  0  0  0  0  0  0  0  0  0  0  0
   19.9648    5.7534    1.1002 O   0  0  0  0  0  0  0  0  0  0  0  0
  2  1  1  1
  2  3  1  0
  1  4  1  0
  3  5  1  0
  3  6  1  0
  5  7  1  0
  4  8  1  0
  5  8  1  0
  6  9  1  0
  9 10  1  0
  2 11  1  0
 10 12  1  0
 11 12  1  0
 10 13  1  1
 13 14  1  0
 14 15  1  0
 15 16  1  0
 14 17  1  1
M  END
$$$$
72
     RDKit          3D

 17 17  0  0  0  0  0  0  0  0999 V2000
   19.7690   13.8178    2.5897 C   0  0  0  0  0  0  0  0  0  0  0  0
   20.6672   14.0268    3.5627 C   0  0  0  0  0  0  0  0  0  0  0  0
   21.5383   12.9601    3.5566 C   0  0  2  0  0  0  0  0  0  0  0  0
   20.0624   12.6564    1.8653 C   0  0  0  0  0  0  0  0  0  0  0  0
   22.6671   12.9796    4.4557 C   0  0  0  0  0  0  0  0  0  0  0  0
   21.2826   12.1004    2.5243 C   0  0  2  0  0  0  0  0  0  0  0  0
   21.7140   10.7844    2.0483 C   0  0  0  0  0  0  0  0  0  0  0  0
   24.0061   13.0152    3.7168 C   0  0  0  0  0  0  0  0  0  0  0  0
   22.6747   10.7090    1.2254 N   0  0  0  0  0  0  0  0  0  0  0  0
   23.1073   11.8850    0.4996 O   0  0  0  0  0  0  0  0  0  0  0  0
   21.1504    9.5076    2.4248 C   0  0  0  0  0  0  0  0  0  0  0  0
   19.8783    9.1272    1.8557 C   0  0  0  0  0  0  0  0  0  0  0  0
   18.9973    9.9184    1.3427 O   0  0  0  0  0  0  0  0  0  0  0  0
   19.5555    7.7335    1.8317 N   0  0  0  0  0  0  0  0  0  0  0  0
   18.8038    7.0635    1.1320 C   0  0  0  0  0  0  0  0  0  0  0  0
   17.9920    7.4694    0.2434 O   0  0  0  0  0  0  0  0  0  0  0  0
   18.5517    5.5777    1.5365 C   0  0  0  0  0  0  0  0  0  0  0  0
  1  2  1  0
  2  3  1  0
  1  4  1  0
  3  5  1  6
  3  6  1  0
  6  4  1  1
  6  7  1  0
  5  8  1  0
  7  9  2  3
  9 10  1  0
  7 11  1  0
 11 12  1  0
 12 13  2  0
 12 14  1  0
 14 15  1  0
 15 16  2  0
 15 17  1  0
M  END
$$$$
73
     RDKit          3D

 17 18  0  0  0  0  0  0  0  0999 V2000
   20.2373   10.2958    3.6276 C   0  0  0  0  0  0  0  0  0  0  0  0
   21.0646   11.1841    3.3500 C   0  0  1  0  0  0  0  0  0  0  0  0
   19.6845    9.2908    2.7930 C   0  0  0  0  0  0  0  0  0  0  0  0
   21.2450   11.2809    1.8598 C   0  0  1  0  0  0  0  0  0  0  0  0
   21.7088   12.2534    4.0795 C   0  0  0  0  0  0  0  0  0  0  0  0
   22.7884   12.1827    4.5414 C   0  0  0  0  0  0  0  0  0  0  0  0
   20.8338   13.4647    4.1567 C   0  0  0  0  0  0  0  0  0  0  0  0
   24.1037   12.3149    3.8948 C   0  0  0  0  0  0  0  0  0  0  0  0
   24.2443   12.4924    2.3614 C   0  0  0  0  0  0  0  0  0  0  0  0
   22.1884   12.2569    1.2454 C   0  0  0  0  0  0  0  0  0  0  0  0
   25.6640   12.6695    2.1100 C   0  0  0  0  0  0  0  0  0  0  0  0
   26.0425   12.2998    0.9157 C   0  0  0  0  0  0  0  0  0  0  0  0
   27.3159   12.3461    0.4796 O   0  0  0  0  0  0  0  0  0  0  0  0
   25.1938   11.5608    0.1169 O   0  0  0  0  0  0  0  0  0  0  0  0
   19.9935    9.3923    1.4082 C   0  0  0  0  0  0  0  0  0  0  0  0
   20.7439   10.3500    0.9602 C   0  0  0  0  0  0  0  0  0  0  0  0
   23.3743   12.4629    1.4327 C   0  0  0  0  0  0  0  0  0  0  0  0
  2  1  1  6
  1  3  1  0
  2  4  1  0
  2  5  1  0
  5  6  1  0
  5  7  1  0
  6  8  2  3
  8  9  1  0
  4 10  1  0
  9 11  1  0
 11 12  1  0
 12 13  1  0
 12 14  1  0
  3 15  1  0
  4 16  1  1
 15 16  1  0
  9 17  2  0
 10 17  2  0
M  END
$$$$
74
     RDKit          3D

 17 19  0  0  0  0  0  0  0  0999 V2000
   17.2999    6.1604    1.3331 O   0  0  0  0  0  0  0  0  0  0  0  0
   18.1597    7.0737    1.1181 C   0  0  0  0  0  0  0  0  0  0  0  0
   18.2143    8.2090    1.7292 N   0  0  0  0  0  0  0  0  0  0  0  0
   19.3261    9.0148    1.9695 C   0  0  0  0  0  0  0  0  0  0  0  0
   19.5075    6.5645    0.7357 C   0  0  0  0  0  0  0  0  0  0  0  0
   20.5302    8.4675    1.5150 C   0  0  1  0  0  0  0  0  0  0  0  0
   19.5748   10.2934    2.5925 N   0  0  0  0  0  0  0  0  0  0  0  0
   21.6755    9.2973    1.8665 C   0  0  2  0  0  0  0  0  0  0  0  0
   20.6895    7.1655    0.9706 C   0  0  0  0  0  0  0  0  0  0  0  0
   20.9576   10.4798    2.4551 C   0  0  2  0  0  0  0  0  0  0  0  0
   21.4677   11.6020    3.1916 C   0  0  2  0  0  0  0  0  0  0  0  0
   23.0250    9.2654    1.6110 C   0  0  0  0  0  0  0  0  0  0  0  0
   20.8817   12.8608    3.1386 C   0  0  0  0  0  0  0  0  0  0  0  0
   20.1556   13.2282    2.1001 O   0  0  0  0  0  0  0  0  0  0  0  0
   21.7236   13.9310    3.5764 O   0  0  0  0  0  0  0  0  0  0  0  0
   22.8280   11.4545    3.5926 C   0  0  0  0  0  0  0  0  0  0  0  0
   23.7569   10.4148    2.9330 C   0  0  0  0  0  0  0  0  0  0  0  0
  1  2  2  0
  2  3  1  0
  3  4  1  0
  2  5  1  0
  4  6  1  0
  4  7  1  0
  6  8  1  0
  5  9  1  0
  6  9  1  1
 10  7  1  1
  8 10  1  0
 10 11  1  0
  8 12  1  6
 11 13  1  6
 13 14  1  0
 13 15  1  0
 11 16  1  0
 12 17  1  0
 16 17  1  0
M  END
$$$$
75
     RDKit          3D

 17 19  0  0  0  0  0  0  0  0999 V2000
   19.7675   12.7267    1.7986 C   0  0  0  0  0  0  0  0  0  0  0  0
   20.3237   11.5430    1.7679 C   0  0  2  0  0  0  0  0  0  0  0  0
   21.0679   11.0397    2.8238 C   0  0  1  0  0  0  0  0  0  0  0  0
   20.9504   10.8850    0.5954 O   0  0  0  0  0  0  0  0  0  0  0  0
   21.7993    9.7990    1.1063 C   0  0  1  0  0  0  0  0  0  0  0  0
   20.6205   11.1579    4.1122 O   0  0  0  0  0  0  0  0  0  0  0  0
   20.1015   13.6676    2.9085 C   0  0  0  0  0  0  0  0  0  0  0  0
   22.6936    9.2896    0.5257 N   0  0  0  0  0  0  0  0  0  0  0  0
   21.8732    9.9363    2.6303 C   0  0  0  0  0  0  0  0  0  0  0  0
   23.0064    9.4787   -0.9381 C   0  0  2  0  0  0  0  0  0  0  0  0
   23.8783    8.6286   -1.4749 C   0  0  0  0  0  0  0  0  0  0  0  0
   23.3086    8.0020    0.7012 C   0  0  0  0  0  0  0  0  0  0  0  0
   24.1382    7.7114   -0.3804 C   0  0  0  0  0  0  0  0  0  0  0  0
   24.3072    8.7398   -2.8446 C   0  0  0  0  0  0  0  0  0  0  0  0
   24.0314    9.8450   -3.5723 C   0  0  0  0  0  0  0  0  0  0  0  0
   22.7876   10.6704   -1.7716 C   0  0  0  0  0  0  0  0  0  0  0  0
   23.2867   10.8500   -2.9933 C   0  0  0  0  0  0  0  0  0  0  0  0
  2  1  1  6
  2  3  1  0
  2  4  1  0
  4  5  1  0
  3  6  1  1
  1  7  1  0
  5  8  1  6
  3  9  1  0
  5  9  1  0
  8 10  1  0
 10 11  1  0
  8 12  1  0
 11 13  1  0
 12 13  1  0
 11 14  1  0
 14 15  1  0
 10 16  1  1
 15 17  1  0
 16 17  1  0
M  END
$$$$
76
     RDKit          3D

 17 19  0  0  0  0  0  0  0  0999 V2000
   17.2999    6.1604    1.3331 O   0  0  0  0  0  0  0  0  0  0  0  0
   18.1597    7.0737    1.1181 C   0  0  0  0  0  0  0  0  0  0  0  0
   18.2143    8.2090    1.7292 N   0  0  0  0  0  0  0  0  0  0  0  0
   19.3261    9.0148    1.9695 C   0  0  0  0  0  0  0  0  0  0  0  0
   19.5075    6.5645    0.7357 C   0  0  0  0  0  0  0  0  0  0  0  0
   20.5302    8.4675    1.5150 C   0  0  1  0  0  0  0  0  0  0  0  0
   19.5748   10.2934    2.5925 N   0  0  0  0  0  0  0  0  0  0  0  0
   21.6755    9.2973    1.8665 C   0  0  2  0  0  0  0  0  0  0  0  0
   20.6895    7.1655    0.9706 C   0  0  0  0  0  0  0  0  0  0  0  0
   20.9576   10.4798    2.4551 C   0  0  2  0  0  0  0  0  0  0  0  0
   21.4677   11.6020    3.1916 C   0  0  2  0  0  0  0  0  0  0  0  0
   23.0250    9.2654    1.6110 C   0  0  0  0  0  0  0  0  0  0  0  0
   20.8817   12.8608    3.1386 C   0  0  0  0  0  0  0  0  0  0  0  0
   22.9633   11.8110    2.7200 C   0  0  2  0  0  0  0  0  0  0  0  0
   23.6954   10.4983    2.2243 C   0  0  0  0  0  0  0  0  0  0  0  0
   23.7349   12.5617    3.7118 C   0  0  0  0  0  0  0  0  0  0  0  0
   19.7166   13.0849    2.4532 O   0  0  0  0  0  0  0  0  0  0  0  0
  1  2  2  0
  2  3  1  0
  3  4  1  0
  2  5  1  0
  4  6  1  0
  4  7  1  0
  6  8  1  0
  5  9  1  0
  6  9  1  1
 10  7  1  1
  8 10  1  0
 10 11  1  0
  8 12  1  6
 11 13  1  6
 11 14  1  0
 12 15  1  0
 14 15  1  0
 14 16  1  1
 13 17  1  0
M  END
$$$$
77
     RDKit          3D

 17 19  0  0  0  0  0  0  0  0999 V2000
   19.6036   11.9133    1.6517 C   0  0  0  0  0  0  0  0  0  0  0  0
   20.1667   12.9156    2.3106 C   0  0  0  0  0  0  0  0  0  0  0  0
   20.3935   10.8345    1.6498 C   0  0  2  0  0  0  0  0  0  0  0  0
   19.9197    9.5599    1.0200 N   0  0  0  0  0  0  0  0  0  0  0  0
   20.6064    8.4375    1.2071 C   0  0  1  0  0  0  0  0  0  0  0  0
   20.0936    7.2025    0.8766 C   0  0  0  0  0  0  0  0  0  0  0  0
   21.1469   12.7145    3.0115 C   0  0  2  0  0  0  0  0  0  0  0  0
   22.0692    8.5800    1.3365 C   0  0  0  0  0  0  0  0  0  0  0  0
   21.5697   10.6171    2.3662 C   0  0  2  0  0  0  0  0  0  0  0  0
   19.2231    6.6948    1.5683 C   0  0  0  0  0  0  0  0  0  0  0  0
   20.7647    6.2116    0.1324 C   0  0  0  0  0  0  0  0  0  0  0  0
   20.2179    4.8639    0.1769 C   0  0  0  0  0  0  0  0  0  0  0  0
   18.5774    5.5540    1.5600 C   0  0  0  0  0  0  0  0  0  0  0  0
   19.1489    4.5781    0.8740 C   0  0  0  0  0  0  0  0  0  0  0  0
   21.7464   14.0001    3.8174 C   0  0  0  0  0  0  0  0  0  0  0  0
   21.8730   11.7836    3.0203 N   0  0  0  0  0  0  0  0  0  0  0  0
   22.4555    9.6180    2.1281 C   0  0  0  0  0  0  0  0  0  0  0  0
  1  2  1  0
  3  1  1  1
  3  4  1  0
  4  5  1  0
  5  6  1  6
  2  7  1  0
  5  8  1  0
  3  9  1  0
  6 10  1  0
  6 11  1  0
 11 12  1  0
 10 13  1  0
 12 14  1  0
 13 14  1  0
  7 15  1  6
  7 16  1  0
  9 16  1  0
  8 17  1  0
  9 17  1  6
M  END
$$$$
78
     RDKit          3D

 17 18  0  0  0  0  0  0  0  0999 V2000
   19.7675   12.7267    1.7986 C   0  0  0  0  0  0  0  0  0  0  0  0
   20.3237   11.5430    1.7679 C   0  0  1  0  0  0  0  0  0  0  0  0
   20.2661   13.5642    2.7080 C   0  0  2  0  0  0  0  0  0  0  0  0
   21.3158   11.0728    2.5537 C   0  0  1  0  0  0  0  0  0  0  0  0
   19.6931   10.2790    0.8831 C   0  0  0  0  0  0  0  0  0  0  0  0
   19.6758    9.1320    1.5279 C   0  0  1  0  0  0  0  0  0  0  0  0
   20.7478    8.7045    2.4344 C   0  0  0  0  0  0  0  0  0  0  0  0
   19.7415   14.9343    2.8028 F   0  0  0  0  0  0  0  0  0  0  0  0
   22.0805   12.2227    3.0660 C   0  0  2  0  0  0  0  0  0  0  0  0
   23.3294   11.8945    3.8386 C   0  0  0  0  0  0  0  0  0  0  0  0
   23.7127   10.5391    3.8034 O   0  0  0  0  0  0  0  0  0  0  0  0
   21.3595    9.7578    3.1762 C   0  0  0  0  0  0  0  0  0  0  0  0
   24.1321   12.8246    4.1877 O   0  0  0  0  0  0  0  0  0  0  0  0
   21.4109   13.3401    3.4520 C   0  0  0  0  0  0  0  0  0  0  0  0
   18.3990    8.3973    1.5257 C   0  0  0  0  0  0  0  0  0  0  0  0
   18.4345    7.0433    1.9201 O   0  0  0  0  0  0  0  0  0  0  0  0
   17.3740    8.7414    1.0167 O   0  0  0  0  0  0  0  0  0  0  0  0
  2  1  1  1
  1  3  1  0
  2  4  1  0
  2  5  1  0
  5  6  1  0
  6  7  1  0
  3  8  1  6
  4  9  1  0
  9 10  1  1
 10 11  1  0
  4 12  1  1
  7 12  1  0
 10 13  2  0
  3 14  1  0
  9 14  1  0
  6 15  1  1
 15 16  2  0
 15 17  1  0
M  END
$$$$
79
     RDKit          3D

 17 18  0  0  0  0  0  0  0  0999 V2000
   19.7675   12.7267    1.7986 C   0  0  0  0  0  0  0  0  0  0  0  0
   20.3237   11.5430    1.7679 C   0  0  1  0  0  0  0  0  0  0  0  0
   21.0679   11.0397    2.8238 C   0  0  0  0  0  0  0  0  0  0  0  0
   20.1515   13.6673    2.7629 C   0  0  0  0  0  0  0  0  0  0  0  0
   21.5458   11.9823    3.7225 C   0  0  0  0  0  0  0  0  0  0  0  0
   21.3881    9.6483    3.0720 C   0  0  0  0  0  0  0  0  0  0  0  0
   22.4496   11.6151    4.7393 N   0  0  0  0  0  0  0  0  0  0  0  0
   21.1372   13.3430    3.6709 C   0  0  0  0  0  0  0  0  0  0  0  0
   20.2036    8.7772    2.6955 C   0  0  0  0  0  0  0  0  0  0  0  0
   19.5816    8.6396    1.5963 C   0  0  2  0  0  0  0  0  0  0  0  0
   20.0210   10.6120    0.4796 C   0  0  0  0  0  0  0  0  0  0  0  0
   19.4223    9.5592    0.6319 C   0  0  0  0  0  0  0  0  0  0  0  0
   18.6077    7.5497    1.6647 O   0  0  0  0  0  0  0  0  0  0  0  0
   18.7230    6.5803    1.0853 C   0  0  0  0  0  0  0  0  0  0  0  0
   17.6644    5.6585    1.1589 C   0  0  0  0  0  0  0  0  0  0  0  0
   17.9111    4.5783    2.1136 O   0  0  0  0  0  0  0  0  0  0  0  0
   19.8732    6.3034    0.5019 O   0  0  0  0  0  0  0  0  0  0  0  0
  2  1  1  1
  2  3  1  0
  1  4  1  0
  3  5  1  0
  3  6  1  0
  5  7  1  0
  4  8  1  0
  5  8  1  0
  6  9  1  0
  9 10  1  0
  2 11  1  0
 10 12  1  0
 11 12  1  0
 10 13  1  1
 13 14  1  0
 14 15  1  0
 15 16  1  0
 14 17  2  0
M  END
$$$$
8
     RDKit          3D

 11 11  0  0  0  0  0  0  0  0999 V2000
   19.8849   14.1641    3.2156 C   0  0  0  0  0  0  0  0  0  0  0  0
   20.7161   13.2054    3.1390 C   0  0  2  0  0  0  0  0  0  0  0  0
   21.4640   12.6838    4.2230 C   0  0  0  0  0  0  0  0  0  0  0  0
   21.2393   12.7926    1.8337 C   0  0  2  0  0  0  0  0  0  0  0  0
   22.4398   11.6768    4.0646 C   0  0  0  0  0  0  0  0  0  0  0  0
   22.8435   11.2122    2.8422 C   0  0  2  0  0  0  0  0  0  0  0  0
   20.5247   13.1025    0.7930 F   0  0  0  0  0  0  0  0  0  0  0  0
   22.3089   11.9900    1.5659 C   0  0  0  0  0  0  0  0  0  0  0  0
   23.6278   10.0457    2.6809 C   0  0  0  0  0  0  0  0  0  0  0  0
   24.1844    9.8213    1.5052 O   0  0  0  0  0  0  0  0  0  0  0  0
   25.1055    8.6415    1.2461 C   0  0  0  0  0  0  0  0  0  0  0  0
  2  1  1  6
  2  3  1  0
  2  4  1  0
  3  5  1  0
  5  6  1  0
  4  7  1  6
  4  8  1  0
  6  8  1  0
  6  9  1  6
  9 10  1  0
 10 11  1  0
M  END
$$$$
80
     RDKit          3D

 17 19  0  0  0  0  0  0  0  0999 V2000
   17.2999    6.1604    1.3331 O   0  0  0  0  0  0  0  0  0  0  0  0
   18.1597    7.0737    1.1181 C   0  0  0  0  0  0  0  0  0  0  0  0
   18.2143    8.2090    1.7292 N   0  0  0  0  0  0  0  0  0  0  0  0
   19.3261    9.0148    1.9695 C   0  0  0  0  0  0  0  0  0  0  0  0
   19.5075    6.5645    0.7357 C   0  0  0  0  0  0  0  0  0  0  0  0
   20.5302    8.4675    1.5150 C   0  0  1  0  0  0  0  0  0  0  0  0
   19.5748   10.2934    2.5925 N   0  0  0  0  0  0  0  0  0  0  0  0
   21.6755    9.2973    1.8665 C   0  0  2  0  0  0  0  0  0  0  0  0
   20.6895    7.1655    0.9706 C   0  0  0  0  0  0  0  0  0  0  0  0
   20.9576   10.4798    2.4551 C   0  0  2  0  0  0  0  0  0  0  0  0
   21.4677   11.6020    3.1916 C   0  0  2  0  0  0  0  0  0  0  0  0
   23.0250    9.2654    1.6110 C   0  0  0  0  0  0  0  0  0  0  0  0
   20.8817   12.8608    3.1386 C   0  0  0  0  0  0  0  0  0  0  0  0
   22.9633   11.8110    2.7200 C   0  0  0  0  0  0  0  0  0  0  0  0
   20.2877   13.3554    2.0499 O   0  0  0  0  0  0  0  0  0  0  0  0
   21.2022   13.7800    4.1068 O   0  0  0  0  0  0  0  0  0  0  0  0
   23.7064   10.4784    2.2889 C   0  0  0  0  0  0  0  0  0  0  0  0
  1  2  2  0
  2  3  1  0
  3  4  1  0
  2  5  1  0
  4  6  1  0
  4  7  1  0
  6  8  1  0
  5  9  1  0
  6  9  1  1
 10  7  1  1
  8 10  1  0
 10 11  1  0
  8 12  1  6
 11 13  1  6
 11 14  1  0
 13 15  2  0
 13 16  1  0
 12 17  1  0
 14 17  1  0
M  END
$$$$
81
     RDKit          3D

 18 20  0  0  0  0  0  0  0  0999 V2000
   19.9063   13.3042    2.0507 O   0  0  0  0  0  0  0  0  0  0  0  0
   20.6063   13.2759    2.9330 C   0  0  0  0  0  0  0  0  0  0  0  0
   21.9117   12.5851    2.8589 C   0  0  0  0  0  0  0  0  0  0  0  0
   20.2418   13.7342    4.1470 O   0  0  0  0  0  0  0  0  0  0  0  0
   22.2915   11.9619    1.5853 C   0  0  2  0  0  0  0  0  0  0  0  0
   21.5184   11.9225    0.5472 O   0  0  0  0  0  0  0  0  0  0  0  0
   22.7592   12.5249    3.9717 C   0  0  0  0  0  0  0  0  0  0  0  0
   23.3729   11.0271    1.6750 C   0  0  2  0  0  0  0  0  0  0  0  0
   24.2576   11.0142    2.7800 C   0  0  0  0  0  0  0  0  0  0  0  0
   23.9677   11.7230    3.7941 C   0  0  0  0  0  0  0  0  0  0  0  0
   25.4075   10.1839    2.7139 C   0  0  2  0  0  0  0  0  0  0  0  0
   23.8101   10.2043    0.5730 C   0  0  2  0  0  0  0  0  0  0  0  0
   22.7763   10.1212   -0.5967 C   0  0  0  0  0  0  0  0  0  0  0  0
   26.3432   10.2690    3.8129 O   0  0  0  0  0  0  0  0  0  0  0  0
   24.8834    9.4393    0.5467 C   0  0  0  0  0  0  0  0  0  0  0  0
   25.8114    9.4392    1.7027 C   0  0  0  0  0  0  0  0  0  0  0  0
   23.1816    9.6136   -1.6913 O   0  0  0  0  0  0  0  0  0  0  0  0
   21.5796   10.7219   -0.3888 C   0  0  0  0  0  0  0  0  0  0  0  0
  1  2  2  0
  2  3  1  0
  2  4  1  0
  3  5  1  0
  5  6  1  1
  3  7  1  0
  5  8  1  0
  8  9  1  6
  7 10  1  0
  9 10  1  0
  9 11  1  0
  8 12  1  0
 12 13  1  0
 11 14  1  6
 12 15  1  1
 11 16  1  0
 15 16  1  0
 13 17  2  0
  6 18  1  0
 13 18  1  0
M  END
$$$$
82
     RDKit          3D

 18 20  0  0  0  0  0  0  0  0999 V2000
   19.9063   13.3042    2.0507 O   0  0  0  0  0  0  0  0  0  0  0  0
   20.6063   13.2759    2.9330 C   0  0  0  0  0  0  0  0  0  0  0  0
   21.9117   12.5851    2.8589 C   0  0  0  0  0  0  0  0  0  0  0  0
   20.2418   13.7342    4.1470 O   0  0  0  0  0  0  0  0  0  0  0  0
   22.2915   11.9619    1.5853 C   0  0  2  0  0  0  0  0  0  0  0  0
   21.5184   11.9225    0.5472 O   0  0  0  0  0  0  0  0  0  0  0  0
   22.7592   12.5249    3.9717 C   0  0  0  0  0  0  0  0  0  0  0  0
   23.3729   11.0271    1.6750 C   0  0  2  0  0  0  0  0  0  0  0  0
   24.2576   11.0142    2.7800 C   0  0  0  0  0  0  0  0  0  0  0  0
   23.9677   11.7230    3.7941 C   0  0  0  0  0  0  0  0  0  0  0  0
   25.4075   10.1839    2.7139 C   0  0  2  0  0  0  0  0  0  0  0  0
   23.8101   10.2043    0.5730 C   0  0  2  0  0  0  0  0  0  0  0  0
   22.7763   10.1212   -0.5967 C   0  0  0  0  0  0  0  0  0  0  0  0
   26.3432   10.2690    3.8129 O   0  0  0  0  0  0  0  0  0  0  0  0
   24.8834    9.4393    0.5467 C   0  0  0  0  0  0  0  0  0  0  0  0
   25.7400    9.4303    1.6688 C   0  0  0  0  0  0  0  0  0  0  0  0
   21.7073   11.1531   -0.4858 C   0  0  0  0  0  0  0  0  0  0  0  0
   27.0035    8.5452    1.6469 C   0  0  0  0  0  0  0  0  0  0  0  0
  1  2  2  0
  2  3  1  0
  2  4  1  0
  3  5  1  0
  5  6  1  1
  3  7  1  0
  5  8  1  0
  8  9  1  6
  7 10  1  0
  9 10  1  0
  9 11  1  0
  8 12  1  0
 12 13  1  1
 11 14  1  6
 12 15  1  0
 11 16  1  0
 15 16  1  0
  6 17  1  0
 13 17  1  0
 16 18  1  0
M  END
$$$$
83
     RDKit          3D

 18 19  0  0  0  0  0  0  0  0999 V2000
   20.2373   10.2958    3.6276 C   0  0  0  0  0  0  0  0  0  0  0  0
   21.0646   11.1841    3.3500 C   0  0  0  0  0  0  0  0  0  0  0  0
   21.8035   12.0013    4.1405 C   0  0  2  0  0  0  0  0  0  0  0  0
   19.5084    9.3247    2.8838 C   0  0  0  0  0  0  0  0  0  0  0  0
   20.9422   11.4766    1.8508 C   0  0  0  0  0  0  0  0  0  0  0  0
   19.4735    9.5955    1.5466 C   0  0  0  0  0  0  0  0  0  0  0  0
   21.8509   13.2990    4.0915 O   0  0  0  0  0  0  0  0  0  0  0  0
   20.2161   10.6651    1.0609 C   0  0  0  0  0  0  0  0  0  0  0  0
   23.2084   11.5429    4.1220 O   0  0  0  0  0  0  0  0  0  0  0  0
   24.1531   12.2137    3.4661 C   0  0  2  0  0  0  0  0  0  0  0  0
   24.4370   11.8534    2.1956 C   0  0  1  0  0  0  0  0  0  0  0  0
   25.3142   12.4817    1.3607 C   0  0  1  0  0  0  0  0  0  0  0  0
   20.9427   14.0572    3.8683 C   0  0  0  0  0  0  0  0  0  0  0  0
   24.2641   10.5596    1.6305 N   0  0  0  0  0  0  0  0  0  0  0  0
   25.4815   11.8744    0.1606 N   0  0  0  0  0  0  0  0  0  0  0  0
   25.8872   13.8006    1.5251 C   0  0  0  0  0  0  0  0  0  0  0  0
   24.8082   10.6356    0.3998 C   0  0  0  0  0  0  0  0  0  0  0  0
   25.3878   12.3900    4.2164 C   0  0  0  0  0  0  0  0  0  0  0  0
  1  2  1  0
  2  3  1  0
  1  4  1  0
  2  5  1  0
  4  6  1  0
  3  7  1  6
  5  8  1  0
  6  8  1  0
  3  9  1  0
  9 10  1  0
 10 11  1  0
 11 12  1  0
  7 13  1  0
 11 14  1  1
 12 15  1  0
 12 16  1  6
 14 17  1  0
 15 17  1  0
 10 18  1  1
M  END
$$$$
84
     RDKit          3D

 18 19  0  0  0  0  0  0  0  0999 V2000
   17.2909    5.4687    1.4066 O   0  0  0  0  0  0  0  0  0  0  0  0
   17.9765    6.3861    1.0414 C   0  0  0  0  0  0  0  0  0  0  0  0
   18.1637    7.5105    1.6413 N   0  0  0  0  0  0  0  0  0  0  0  0
   19.2094    8.3802    1.4025 C   0  0  0  0  0  0  0  0  0  0  0  0
   18.6603    6.0840   -0.2452 O   0  0  0  0  0  0  0  0  0  0  0  0
   19.0696    9.6942    1.7812 C   0  0  0  0  0  0  0  0  0  0  0  0
   20.2508   10.5739    1.5568 C   0  0  2  0  0  0  0  0  0  0  0  0
   20.4058    8.1695    0.8718 N   0  0  0  0  0  0  0  0  0  0  0  0
   21.1837    9.3554    1.0234 C   0  0  1  0  0  0  0  0  0  0  0  0
   22.5453    9.5727    0.5608 C   0  0  0  0  0  0  0  0  0  0  0  0
   20.7160   11.8182    1.7387 C   0  0  2  0  0  0  0  0  0  0  0  0
   22.9424   10.9528    0.8166 C   0  0  2  0  0  0  0  0  0  0  0  0
   22.1072   11.9781    1.3509 C   0  0  0  0  0  0  0  0  0  0  0  0
   19.9485   12.7608    2.4009 C   0  0  0  0  0  0  0  0  0  0  0  0
   20.1749   13.3391    3.5104 C   0  0  0  0  0  0  0  0  0  0  0  0
   24.3970   11.3337    0.3813 C   0  0  0  0  0  0  0  0  0  0  0  0
   24.9972   12.2065    1.1582 O   0  0  0  0  0  0  0  0  0  0  0  0
   25.1858   10.4622   -0.1304 O   0  0  0  0  0  0  0  0  0  0  0  0
  1  2  2  0
  2  3  1  0
  3  4  1  0
  2  5  1  0
  4  6  1  0
  7  6  1  1
  4  8  1  0
  7  9  1  0
  8  9  1  0
  9 10  1  6
  7 11  1  0
 10 12  1  0
 11 13  1  0
 12 13  1  0
 11 14  1  1
 14 15  1  0
 12 16  1  6
 16 17  1  0
 16 18  2  0
M  END
$$$$
85
     RDKit          3D

 18 20  0  0  0  0  0  0  0  0999 V2000
   20.4601   13.7756    3.6865 C   0  0  0  0  0  0  0  0  0  0  0  0
   21.5224   12.9237    4.0049 C   0  0  0  0  0  0  0  0  0  0  0  0
   22.0194   11.9839    3.0892 C   0  0  0  0  0  0  0  0  0  0  0  0
   19.8427   13.6785    2.4674 C   0  0  0  0  0  0  0  0  0  0  0  0
   21.3357   11.8952    1.7965 C   0  0  2  0  0  0  0  0  0  0  0  0
   20.2451   12.6552    1.5306 C   0  0  0  0  0  0  0  0  0  0  0  0
   21.7980   10.7313    0.6849 C   0  0  0  0  0  0  0  0  0  0  0  0
   23.1694   11.0846    3.3376 C   0  0  0  0  0  0  0  0  0  0  0  0
   24.0774   11.5175    4.3085 O   0  0  0  0  0  0  0  0  0  0  0  0
   21.2773   10.5835   -0.3546 O   0  0  0  0  0  0  0  0  0  0  0  0
   23.7110   10.0800    2.5421 N   0  0  0  0  0  0  0  0  0  0  0  0
   22.9228    9.9046    1.2626 C   0  0  2  0  0  0  0  0  0  0  0  0
   23.3686    8.8704    0.4488 C   0  0  0  0  0  0  0  0  0  0  0  0
   23.2078    7.5451    0.8422 C   0  0  0  0  0  0  0  0  0  0  0  0
   23.9665    9.0495   -0.7888 C   0  0  0  0  0  0  0  0  0  0  0  0
   23.5025    6.5775    0.0364 C   0  0  0  0  0  0  0  0  0  0  0  0
   24.1116    6.8831   -1.1723 C   0  0  0  0  0  0  0  0  0  0  0  0
   24.3311    8.1520   -1.5422 C   0  0  0  0  0  0  0  0  0  0  0  0
  1  2  1  0
  2  3  1  0
  1  4  1  0
  3  5  1  0
  4  6  1  0
  5  6  1  1
  5  7  1  0
  3  8  1  0
  8  9  2  0
  7 10  2  0
  8 11  1  0
  7 12  1  0
 11 12  1  0
 12 13  1  6
 13 14  1  0
 13 15  1  0
 14 16  1  0
 16 17  1  0
 15 18  1  0
 17 18  1  0
M  END
$$$$
86
     RDKit          3D

 18 20  0  0  0  0  0  0  0  0999 V2000
   19.9063   13.3042    2.0507 O   0  0  0  0  0  0  0  0  0  0  0  0
   20.6063   13.2759    2.9330 C   0  0  0  0  0  0  0  0  0  0  0  0
   21.9117   12.5851    2.8589 C   0  0  0  0  0  0  0  0  0  0  0  0
   20.2418   13.7342    4.1470 O   0  0  0  0  0  0  0  0  0  0  0  0
   22.2915   11.9619    1.5853 C   0  0  2  0  0  0  0  0  0  0  0  0
   21.5184   11.9225    0.5472 O   0  0  0  0  0  0  0  0  0  0  0  0
   22.7592   12.5249    3.9717 C   0  0  0  0  0  0  0  0  0  0  0  0
   23.3729   11.0271    1.6750 C   0  0  2  0  0  0  0  0  0  0  0  0
   24.2576   11.0142    2.7800 C   0  0  0  0  0  0  0  0  0  0  0  0
   23.9677   11.7230    3.7941 C   0  0  0  0  0  0  0  0  0  0  0  0
   25.4075   10.1839    2.7139 C   0  0  2  0  0  0  0  0  0  0  0  0
   23.8101   10.2043    0.5730 C   0  0  2  0  0  0  0  0  0  0  0  0
   22.7763   10.1212   -0.5967 C   0  0  0  0  0  0  0  0  0  0  0  0
   26.3432   10.2690    3.8129 O   0  0  0  0  0  0  0  0  0  0  0  0
   24.8834    9.4393    0.5467 C   0  0  0  0  0  0  0  0  0  0  0  0
   25.7400    9.4303    1.6688 C   0  0  0  0  0  0  0  0  0  0  0  0
   21.9118   11.0539   -0.4747 C   0  0  0  0  0  0  0  0  0  0  0  0
   27.0017    8.5567    1.6497 O   0  0  0  0  0  0  0  0  0  0  0  0
  1  2  2  0
  2  3  1  0
  2  4  1  0
  3  5  1  0
  5  6  1  1
  3  7  1  0
  5  8  1  0
  8  9  1  6
  7 10  1  0
  9 10  1  0
  9 11  1  0
  8 12  1  0
 12 13  1  1
 11 14  1  6
 12 15  1  0
 11 16  1  0
 15 16  1  0
  6 17  1  0
 13 17  1  0
 16 18  1  0
M  END
$$$$
87
     RDKit          3D

 18 19  0  0  0  0  0  0  0  0999 V2000
   17.2909    5.4687    1.4066 O   0  0  0  0  0  0  0  0  0  0  0  0
   17.9765    6.3861    1.0414 C   0  0  0  0  0  0  0  0  0  0  0  0
   18.1637    7.5105    1.6413 N   0  0  0  0  0  0  0  0  0  0  0  0
   19.2094    8.3802    1.4025 C   0  0  0  0  0  0  0  0  0  0  0  0
   18.6603    6.0840   -0.2452 O   0  0  0  0  0  0  0  0  0  0  0  0
   19.0696    9.6942    1.7812 C   0  0  0  0  0  0  0  0  0  0  0  0
   20.2508   10.5739    1.5568 C   0  0  2  0  0  0  0  0  0  0  0  0
   20.4058    8.1695    0.8718 N   0  0  0  0  0  0  0  0  0  0  0  0
   21.1837    9.3554    1.0234 C   0  0  1  0  0  0  0  0  0  0  0  0
   22.5453    9.5727    0.5608 C   0  0  0  0  0  0  0  0  0  0  0  0
   20.7160   11.8182    1.7387 C   0  0  0  0  0  0  0  0  0  0  0  0
   22.9424   10.9528    0.8166 C   0  0  2  0  0  0  0  0  0  0  0  0
   22.0944   11.9992    1.3491 C   0  0  0  0  0  0  0  0  0  0  0  0
   24.3180   11.3079    0.3632 C   0  0  0  0  0  0  0  0  0  0  0  0
   19.8182   12.9682    2.3071 C   0  0  0  0  0  0  0  0  0  0  0  0
   25.0121   12.1558    1.1531 O   0  0  0  0  0  0  0  0  0  0  0  0
   20.5209   14.0291    2.6763 C   0  0  0  0  0  0  0  0  0  0  0  0
   25.0196   10.5197   -0.3517 N   0  0  0  0  0  0  0  0  0  0  0  0
  1  2  2  0
  2  3  1  0
  3  4  1  0
  2  5  1  0
  4  6  1  0
  7  6  1  1
  4  8  1  0
  7  9  1  0
  8  9  1  0
  9 10  1  6
  7 11  1  0
 10 12  1  0
 11 13  1  0
 12 13  1  0
 12 14  1  6
 11 15  1  0
 14 16  2  0
 15 17  1  0
 14 18  1  0
M  END
$$$$
88
     RDKit          3D

 18 19  0  0  0  0  0  0  0  0999 V2000
   20.0029   12.5200    1.5151 C   0  0  0  0  0  0  0  0  0  0  0  0
   20.8129   11.5666    1.3733 C   0  0  2  0  0  0  0  0  0  0  0  0
   20.6647   10.5519    0.5420 O   0  0  0  0  0  0  0  0  0  0  0  0
   21.0961   10.8299    2.7743 C   0  0  2  0  0  0  0  0  0  0  0  0
   21.6451    9.6836    0.3945 C   0  0  2  0  0  0  0  0  0  0  0  0
   20.1956    9.8142    2.8293 O   0  0  0  0  0  0  0  0  0  0  0  0
   21.7169    8.5944    1.4107 C   0  0  0  0  0  0  0  0  0  0  0  0
   20.3855   13.6310    2.4594 C   0  0  0  0  0  0  0  0  0  0  0  0
   20.4720    8.5476    2.2186 C   0  0  2  0  0  0  0  0  0  0  0  0
   23.0562   10.2500    0.3973 O   0  0  0  0  0  0  0  0  0  0  0  0
   20.5861   13.1469    3.8447 C   0  0  0  0  0  0  0  0  0  0  0  0
   21.2458   11.9987    3.9191 C   0  0  0  0  0  0  0  0  0  0  0  0
   22.4506    7.5913    1.2696 O   0  0  0  0  0  0  0  0  0  0  0  0
   23.5694   10.6155   -0.8447 C   0  0  0  0  0  0  0  0  0  0  0  0
   19.5828    7.6958    2.3996 O   0  0  0  0  0  0  0  0  0  0  0  0
   22.8534   10.8712   -1.8168 O   0  0  0  0  0  0  0  0  0  0  0  0
   24.9553   10.7569   -0.8356 O   0  0  0  0  0  0  0  0  0  0  0  0
   18.4077    7.6718    1.4949 C   0  0  0  0  0  0  0  0  0  0  0  0
  2  1  1  1
  2  3  1  0
  2  4  1  0
  3  5  1  0
  4  6  1  0
  5  7  1  0
  1  8  1  0
  6  9  1  0
  7  9  1  0
  5 10  1  1
  8 11  1  0
  4 12  1  1
 11 12  1  0
  7 13  2  0
 10 14  1  0
  9 15  1  6
 14 16  2  0
 14 17  1  0
 15 18  1  0
M  END
$$$$
89
     RDKit          3D

 18 20  0  0  0  0  0  0  0  0999 V2000
   19.7675   12.7267    1.7986 C   0  0  0  0  0  0  0  0  0  0  0  0
   20.3237   11.5430    1.7679 C   0  0  1  0  0  0  0  0  0  0  0  0
   20.2661   13.5642    2.7080 C   0  0  0  0  0  0  0  0  0  0  0  0
   21.3158   11.0728    2.5537 C   0  0  1  0  0  0  0  0  0  0  0  0
   19.6931   10.2790    0.8831 C   0  0  0  0  0  0  0  0  0  0  0  0
   19.6758    9.1320    1.5279 C   0  0  1  0  0  0  0  0  0  0  0  0
   21.7812    9.7045    2.5247 C   0  0  0  0  0  0  0  0  0  0  0  0
   21.4126   13.2498    3.4890 C   0  0  0  0  0  0  0  0  0  0  0  0
   22.1304   11.9945    3.2753 C   0  0  1  0  0  0  0  0  0  0  0  0
   18.7872    8.2484    1.3446 N   0  0  0  0  0  0  0  0  0  0  0  0
   18.8655    6.9738    1.8119 C   0  0  0  0  0  0  0  0  0  0  0  0
   17.8450    6.0348    1.8423 O   0  0  0  0  0  0  0  0  0  0  0  0
   20.2053    6.3909    1.8414 C   0  0  0  0  0  0  0  0  0  0  0  0
   21.2619    7.3441    1.8765 C   0  0  0  0  0  0  0  0  0  0  0  0
   20.8647    8.6253    2.1125 C   0  0  2  0  0  0  0  0  0  0  0  0
   23.4101   11.7988    3.8938 C   0  0  0  0  0  0  0  0  0  0  0  0
   24.0753   10.8128    3.4937 O   0  0  0  0  0  0  0  0  0  0  0  0
   24.0012   12.7225    4.5816 O   0  0  0  0  0  0  0  0  0  0  0  0
  2  1  1  1
  1  3  1  0
  2  4  1  0
  2  5  1  0
  6  5  1  6
  4  7  1  6
  3  8  1  0
  4  9  1  0
  8  9  1  0
  6 10  1  0
 10 11  1  0
 11 12  2  0
 11 13  1  0
 13 14  1  0
  6 15  1  0
 15  7  1  6
 14 15  1  0
  9 16  1  1
 16 17  2  0
 16 18  1  0
M  END
$$$$
9
     RDKit          3D

 11 12  0  0  0  0  0  0  0  0999 V2000
   20.2373   10.2958    3.6276 C   0  0  0  0  0  0  0  0  0  0  0  0
   21.0646   11.1841    3.3500 C   0  0  0  0  0  0  0  0  0  0  0  0
   21.8035   12.0013    4.1405 C   0  0  0  0  0  0  0  0  0  0  0  0
   19.5084    9.3247    2.8838 C   0  0  0  0  0  0  0  0  0  0  0  0
   20.9422   11.4766    1.8508 C   0  0  0  0  0  0  0  0  0  0  0  0
   19.4735    9.5955    1.5466 C   0  0  0  0  0  0  0  0  0  0  0  0
   21.8509   13.2990    4.0915 O   0  0  0  0  0  0  0  0  0  0  0  0
   20.2161   10.6651    1.0609 C   0  0  0  0  0  0  0  0  0  0  0  0
   23.2084   11.5429    4.1220 O   0  0  0  0  0  0  0  0  0  0  0  0
   24.2106   12.4826    4.2460 C   0  0  0  0  0  0  0  0  0  0  0  0
   23.3190   13.6471    3.9241 C   0  0  0  0  0  0  0  0  0  0  0  0
  1  2  1  0
  2  3  1  0
  1  4  1  0
  2  5  1  0
  4  6  1  0
  3  7  1  0
  5  8  1  0
  6  8  1  0
  3  9  1  0
  9 10  1  0
  7 11  1  0
 10 11  1  0
M  END
$$$$
90
     RDKit          3D

 18 19  0  0  0  0  0  0  0  0999 V2000
   17.3542    6.5249    1.0173 C   0  0  0  0  0  0  0  0  0  0  0  0
   18.1983    7.4390    1.2437 C   0  0  0  0  0  0  0  0  0  0  0  0
   19.5171    6.9598    1.2737 C   0  0  0  0  0  0  0  0  0  0  0  0
   17.5567    5.2887    0.7178 C   0  0  0  0  0  0  0  0  0  0  0  0
   16.4617    4.2480    0.4098 C   0  0  0  0  0  0  0  0  0  0  0  0
   19.8738    5.6395    1.0879 C   0  0  0  0  0  0  0  0  0  0  0  0
   18.8596    4.7475    0.7923 C   0  0  0  0  0  0  0  0  0  0  0  0
   20.6652    7.8616    1.5718 C   0  0  0  0  0  0  0  0  0  0  0  0
   21.9128    7.6724    1.0456 C   0  0  0  0  0  0  0  0  0  0  0  0
   20.4432    8.9866    2.4427 C   0  0  0  0  0  0  0  0  0  0  0  0
   21.3814    9.8730    2.7529 C   0  0  0  0  0  0  0  0  0  0  0  0
   22.6409    9.7484    2.1705 C   0  0  0  0  0  0  0  0  0  0  0  0
   22.8774    8.7160    1.3329 C   0  0  0  0  0  0  0  0  0  0  0  0
   21.0059   11.0821    3.7689 C   0  0  0  0  0  0  0  0  0  0  0  0
   21.5928   12.3061    3.4141 N   0  0  0  0  0  0  0  0  0  0  0  0
   20.8050   13.4047    3.3865 C   0  0  0  0  0  0  0  0  0  0  0  0
   19.5703   13.4520    2.8117 O   0  0  0  0  0  0  0  0  0  0  0  0
   21.5126   14.6057    3.5739 C   0  0  0  0  0  0  0  0  0  0  0  0
  1  2  1  0
  2  3  1  0
  1  4  1  0
  4  5  1  0
  3  6  1  0
  4  7  1  0
  6  7  1  0
  3  8  1  0
  8  9  1  0
  8 10  1  0
 10 11  1  0
 11 12  1  0
  9 13  1  0
 12 13  1  0
 11 14  1  0
 14 15  1  0
 15 16  1  0
 16 17  2  0
 16 18  1  0
M  END
$$$$
91
     RDKit          3D

 18 20  0  0  0  0  0  0  0  0999 V2000
   19.9063   13.3042    2.0507 O   0  0  0  0  0  0  0  0  0  0  0  0
   20.6063   13.2759    2.9330 C   0  0  0  0  0  0  0  0  0  0  0  0
   21.9117   12.5851    2.8589 C   0  0  0  0  0  0  0  0  0  0  0  0
   20.2418   13.7342    4.1470 O   0  0  0  0  0  0  0  0  0  0  0  0
   22.2915   11.9619    1.5853 C   0  0  2  0  0  0  0  0  0  0  0  0
   21.5184   11.9225    0.5472 O   0  0  0  0  0  0  0  0  0  0  0  0
   22.7592   12.5249    3.9717 C   0  0  0  0  0  0  0  0  0  0  0  0
   23.3729   11.0271    1.6750 C   0  0  2  0  0  0  0  0  0  0  0  0
   24.2576   11.0142    2.7800 C   0  0  0  0  0  0  0  0  0  0  0  0
   23.9677   11.7230    3.7941 C   0  0  0  0  0  0  0  0  0  0  0  0
   25.4075   10.1839    2.7139 C   0  0  0  0  0  0  0  0  0  0  0  0
   23.8101   10.2043    0.5730 C   0  0  2  0  0  0  0  0  0  0  0  0
   22.7763   10.1212   -0.5967 C   0  0  2  0  0  0  0  0  0  0  0  0
   24.8516    9.3994    0.4717 C   0  0  0  0  0  0  0  0  0  0  0  0
   23.2608    9.6111   -1.6727 O   0  0  0  0  0  0  0  0  0  0  0  0
   21.6043   10.9158   -0.4604 C   0  0  0  0  0  0  0  0  0  0  0  0
   25.1213    8.5403   -0.6105 O   0  0  0  0  0  0  0  0  0  0  0  0
   25.7442    9.4415    1.5188 C   0  0  0  0  0  0  0  0  0  0  0  0
  1  2  2  0
  2  3  1  0
  2  4  1  0
  3  5  1  0
  5  6  1  1
  3  7  1  0
  5  8  1  0
  8  9  1  6
  7 10  1  0
  9 10  1  0
  9 11  1  0
  8 12  1  0
 12 13  1  0
 12 14  1  1
 13 15  1  6
  6 16  1  0
 13 16  1  0
 14 17  1  0
 11 18  1  0
 14 18  1  0
M  END
$$$$
92
     RDKit          3D

 18 19  0  0  0  0  0  0  0  0999 V2000
   19.9063   13.3042    2.0507 O   0  0  0  0  0  0  0  0  0  0  0  0
   20.6063   13.2759    2.9330 C   0  0  0  0  0  0  0  0  0  0  0  0
   21.9117   12.5851    2.8589 C   0  0  0  0  0  0  0  0  0  0  0  0
   20.2418   13.7342    4.1470 O   0  0  0  0  0  0  0  0  0  0  0  0
   22.2915   11.9619    1.5853 C   0  0  0  0  0  0  0  0  0  0  0  0
   21.5184   11.9225    0.5472 O   0  0  0  0  0  0  0  0  0  0  0  0
   22.7592   12.5249    3.9717 C   0  0  0  0  0  0  0  0  0  0  0  0
   24.0187   11.8615    3.8050 C   0  0  0  0  0  0  0  0  0  0  0  0
   24.3311   11.4041    2.6835 C   0  0  0  0  0  0  0  0  0  0  0  0
   25.6929   10.7046    2.4871 C   0  0  0  0  0  0  0  0  0  0  0  0
   23.5208   11.4235    1.5602 C   0  0  0  0  0  0  0  0  0  0  0  0
   26.7207   11.3568    2.6102 O   0  0  0  0  0  0  0  0  0  0  0  0
   25.8211    9.5247    1.9485 N   0  0  0  0  0  0  0  0  0  0  0  0
   24.6885    8.7048    1.7254 C   0  0  0  0  0  0  0  0  0  0  0  0
   27.1108    9.0632    1.5372 C   0  0  0  0  0  0  0  0  0  0  0  0
   27.1093    8.2719    0.4892 C   0  0  0  0  0  0  0  0  0  0  0  0
   26.1060    7.1284    0.5379 C   0  0  0  0  0  0  0  0  0  0  0  0
   24.8604    7.8716    0.7833 C   0  0  0  0  0  0  0  0  0  0  0  0
  1  2  2  0
  2  3  1  0
  2  4  1  0
  3  5  1  0
  5  6  1  0
  3  7  1  0
  7  8  1  0
  8  9  1  0
  9 10  1  0
  5 11  1  0
  9 11  1  0
 10 12  2  0
 10 13  1  0
 13 14  1  0
 13 15  1  0
 15 16  1  0
 16 17  1  0
 14 18  1  0
 17 18  1  0
M  END
$$$$
93
     RDKit          3D

 18 20  0  0  0  0  0  0  0  0999 V2000
   19.9063   13.3042    2.0507 O   0  0  0  0  0  0  0  0  0  0  0  0
   20.6063   13.2759    2.9330 C   0  0  0  0  0  0  0  0  0  0  0  0
   21.9117   12.5851    2.8589 C   0  0  0  0  0  0  0  0  0  0  0  0
   20.2418   13.7342    4.1470 O   0  0  0  0  0  0  0  0  0  0  0  0
   22.2915   11.9619    1.5853 C   0  0  2  0  0  0  0  0  0  0  0  0
   21.5184   11.9225    0.5472 O   0  0  0  0  0  0  0  0  0  0  0  0
   22.7592   12.5249    3.9717 C   0  0  0  0  0  0  0  0  0  0  0  0
   24.0187   11.8615    3.8050 C   0  0  2  0  0  0  0  0  0  0  0  0
   24.9615   11.8891    4.9104 C   0  0  0  0  0  0  0  0  0  0  0  0
   24.3569   11.2836    2.5766 C   0  0  0  0  0  0  0  0  0  0  0  0
   25.6609   10.6543    2.4342 C   0  0  2  0  0  0  0  0  0  0  0  0
   23.4356   11.2769    1.5307 C   0  0  2  0  0  0  0  0  0  0  0  0
   23.7484   10.5743    0.2745 C   0  0  0  0  0  0  0  0  0  0  0  0
   26.2150   11.2894    4.7124 C   0  0  0  0  0  0  0  0  0  0  0  0
   26.5715   10.6989    3.4841 C   0  0  0  0  0  0  0  0  0  0  0  0
   22.7900   10.2886   -0.5209 O   0  0  0  0  0  0  0  0  0  0  0  0
   25.0185   10.5037    0.0876 C   0  0  0  0  0  0  0  0  0  0  0  0
   25.9484   10.3690    1.0928 C   0  0  0  0  0  0  0  0  0  0  0  0
  1  2  2  0
  2  3  1  0
  2  4  1  0
  3  5  1  0
  5  6  1  1
  3  7  1  0
  8  7  1  6
  8  9  1  0
  8 10  1  0
 10 11  1  0
  5 12  1  0
 10 12  1  0
 12 13  1  6
  9 14  1  0
 11 15  1  6
 14 15  1  0
 13 16  1  0
 13 17  2  0
 11 18  1  0
 17 18  1  0
M  END
$$$$
94
     RDKit          3D

 18 18  0  0  0  0  0  0  0  0999 V2000
   19.8849   14.1641    3.2156 C   0  0  0  0  0  0  0  0  0  0  0  0
   20.7161   13.2054    3.1390 C   0  0  2  0  0  0  0  0  0  0  0  0
   21.4640   12.6838    4.2230 C   0  0  0  0  0  0  0  0  0  0  0  0
   22.5401   11.8505    3.9754 C   0  0  0  0  0  0  0  0  0  0  0  0
   21.2216   12.5589    1.9557 C   0  0  0  0  0  0  0  0  0  0  0  0
   20.4497   12.5985    0.7651 O   0  0  0  0  0  0  0  0  0  0  0  0
   22.3519   11.8059    1.7889 N   0  0  0  0  0  0  0  0  0  0  0  0
   23.0010   11.4122    2.9014 C   0  0  0  0  0  0  0  0  0  0  0  0
   22.6511   11.2215    0.4269 C   0  0  0  0  0  0  0  0  0  0  0  0
   23.2760    9.9541    0.6424 O   0  0  0  0  0  0  0  0  0  0  0  0
   22.5128   11.6977   -0.5531 O   0  0  0  0  0  0  0  0  0  0  0  0
   23.7871    9.3150   -0.5491 C   0  0  1  0  0  0  0  0  0  0  0  0
   25.1636    9.6996   -0.7028 C   0  0  1  0  0  0  0  0  0  0  0  0
   25.6165    9.5758   -1.9480 O   0  0  0  0  0  0  0  0  0  0  0  0
   25.4561   11.0816   -0.1931 C   0  0  0  0  0  0  0  0  0  0  0  0
   23.6358    7.8513   -0.1982 C   0  0  0  0  0  0  0  0  0  0  0  0
   24.1726    7.4738    0.9760 O   0  0  0  0  0  0  0  0  0  0  0  0
   27.0228   11.1268    0.0789 O   0  0  0  0  0  0  0  0  0  0  0  0
  2  1  1  6
  2  3  1  0
  3  4  1  0
  2  5  1  0
  5  6  2  0
  5  7  1  0
  4  8  1  0
  7  8  1  0
  7  9  1  0
  9 10  1  0
  9 11  2  0
 10 12  1  0
 12 13  1  0
 13 14  1  6
 13 15  1  0
 12 16  1  1
 16 17  1  0
 15 18  1  0
M  END
$$$$
95
     RDKit          3D

 18 19  0  0  0  0  0  0  0  0999 V2000
   20.6644   11.9876    4.1338 N   0  0  0  0  0  0  0  0  0  0  0  0
   20.8802   10.8010    3.8400 C   0  0  0  0  0  0  0  0  0  0  0  0
   20.9653   10.5085    2.4862 N   0  0  0  0  0  0  0  0  0  0  0  0
   21.1468    9.3569    1.7070 C   0  0  0  0  0  0  0  0  0  0  0  0
   20.2082    8.5091    1.7681 C   0  0  0  0  0  0  0  0  0  0  0  0
   20.5787   12.8540    3.0619 C   0  0  0  0  0  0  0  0  0  0  0  0
   22.2697    9.2159    0.9063 C   0  0  1  0  0  0  0  0  0  0  0  0
   22.4853    8.0073    0.3058 C   0  0  0  0  0  0  0  0  0  0  0  0
   21.5532    7.0865    0.6090 C   0  0  0  0  0  0  0  0  0  0  0  0
   21.7678    5.7232    0.1221 O   0  0  0  0  0  0  0  0  0  0  0  0
   20.7771   11.8568    1.8984 C   0  0  0  0  0  0  0  0  0  0  0  0
   20.3898    7.2130    1.3072 C   0  0  2  0  0  0  0  0  0  0  0  0
   22.3446    4.7793    0.8914 C   0  0  0  0  0  0  0  0  0  0  0  0
   20.3653   14.1204    2.9549 C   0  0  0  0  0  0  0  0  0  0  0  0
   19.3627    6.1947    1.4463 O   0  0  0  0  0  0  0  0  0  0  0  0
   18.0712    6.4172    1.2388 C   0  0  0  0  0  0  0  0  0  0  0  0
   23.0721   10.4355    0.7270 O   0  0  0  0  0  0  0  0  0  0  0  0
   23.9184   10.5057   -0.4812 C   0  0  0  0  0  0  0  0  0  0  0  0
  1  2  1  0
  2  3  1  0
  3  4  1  0
  4  5  1  0
  1  6  1  0
  4  7  1  0
  7  8  1  0
  8  9  1  0
  9 10  1  0
  3 11  1  0
  6 11  1  0
  5 12  1  0
  9 12  1  0
 10 13  1  0
  6 14  1  0
 12 15  1  6
 15 16  1  0
  7 17  1  6
 17 18  1  0
M  END
$$$$
96
     RDKit          3D

 18 20  0  0  0  0  0  0  0  0999 V2000
   19.9063   13.3042    2.0507 O   0  0  0  0  0  0  0  0  0  0  0  0
   20.6063   13.2759    2.9330 C   0  0  0  0  0  0  0  0  0  0  0  0
   21.9117   12.5851    2.8589 C   0  0  0  0  0  0  0  0  0  0  0  0
   20.2418   13.7342    4.1470 O   0  0  0  0  0  0  0  0  0  0  0  0
   22.2915   11.9619    1.5853 C   0  0  2  0  0  0  0  0  0  0  0  0
   21.5184   11.9225    0.5472 O   0  0  0  0  0  0  0  0  0  0  0  0
   22.7592   12.5249    3.9717 C   0  0  0  0  0  0  0  0  0  0  0  0
   23.3729   11.0271    1.6750 C   0  0  2  0  0  0  0  0  0  0  0  0
   24.2576   11.0142    2.7800 C   0  0  0  0  0  0  0  0  0  0  0  0
   23.9677   11.7230    3.7941 C   0  0  0  0  0  0  0  0  0  0  0  0
   25.4075   10.1839    2.7139 C   0  0  0  0  0  0  0  0  0  0  0  0
   23.8101   10.2043    0.5730 C   0  0  2  0  0  0  0  0  0  0  0  0
   22.7763   10.1212   -0.5967 C   0  0  0  0  0  0  0  0  0  0  0  0
   24.8516    9.3994    0.4717 C   0  0  2  0  0  0  0  0  0  0  0  0
   21.7106   11.2384   -0.4425 C   0  0  0  0  0  0  0  0  0  0  0  0
   25.1277    8.5403   -0.6377 O   0  0  0  0  0  0  0  0  0  0  0  0
   25.6193    9.2723    1.6281 C   0  0  0  0  0  0  0  0  0  0  0  0
   26.3346    8.4502   -1.0668 C   0  0  0  0  0  0  0  0  0  0  0  0
  1  2  2  0
  2  3  1  0
  2  4  1  0
  3  5  1  0
  5  6  1  1
  3  7  1  0
  5  8  1  0
  8  9  1  6
  7 10  1  0
  9 10  1  0
  9 11  1  0
  8 12  1  0
 12 13  1  1
 12 14  1  0
  6 15  1  0
 13 15  1  0
 14 16  1  1
 11 17  1  0
 14 17  1  0
 16 18  1  0
M  END
$$$$
97
     RDKit          3D

 18 19  0  0  0  0  0  0  0  0999 V2000
   20.2373   10.2958    3.6276 C   0  0  0  0  0  0  0  0  0  0  0  0
   21.0646   11.1841    3.3500 C   0  0  0  0  0  0  0  0  0  0  0  0
   21.8035   12.0013    4.1405 C   0  0  2  0  0  0  0  0  0  0  0  0
   19.5084    9.3247    2.8838 C   0  0  0  0  0  0  0  0  0  0  0  0
   20.9422   11.4766    1.8508 C   0  0  0  0  0  0  0  0  0  0  0  0
   19.4735    9.5955    1.5466 C   0  0  0  0  0  0  0  0  0  0  0  0
   21.8509   13.2990    4.0915 O   0  0  0  0  0  0  0  0  0  0  0  0
   20.2161   10.6651    1.0609 C   0  0  0  0  0  0  0  0  0  0  0  0
   23.2084   11.5429    4.1220 O   0  0  0  0  0  0  0  0  0  0  0  0
   24.1531   12.2137    3.4661 C   0  0  2  0  0  0  0  0  0  0  0  0
   24.4370   11.8534    2.1956 C   0  0  0  0  0  0  0  0  0  0  0  0
   25.3142   12.4817    1.3607 C   0  0  2  0  0  0  0  0  0  0  0  0
   20.9427   14.0572    3.8683 C   0  0  0  0  0  0  0  0  0  0  0  0
   25.6829   11.8444    0.2215 O   0  0  0  0  0  0  0  0  0  0  0  0
   23.8104   10.7383    1.6037 O   0  0  0  0  0  0  0  0  0  0  0  0
   25.0384   13.1583    3.9937 C   0  0  0  0  0  0  0  0  0  0  0  0
   25.9826   13.8100    3.1557 C   0  0  0  0  0  0  0  0  0  0  0  0
   26.1639   13.3857    1.8347 C   0  0  0  0  0  0  0  0  0  0  0  0
  1  2  1  0
  2  3  1  0
  1  4  1  0
  2  5  1  0
  4  6  1  0
  3  7  1  6
  5  8  1  0
  6  8  1  0
  3  9  1  0
 10  9  1  1
 10 11  1  0
 11 12  1  0
  7 13  1  0
 12 14  1  1
 11 15  1  0
 10 16  1  0
 16 17  1  0
 12 18  1  0
 17 18  1  0
M  END
$$$$
98
     RDKit          3D

 18 19  0  0  0  0  0  0  0  0999 V2000
   20.3387   13.2831    1.9878 C   0  0  0  0  0  0  0  0  0  0  0  0
   20.3973   13.7338    3.2744 C   0  0  0  0  0  0  0  0  0  0  0  0
   21.4453   13.1071    4.0933 C   0  0  0  0  0  0  0  0  0  0  0  0
   20.9160   12.0920    1.7266 C   0  0  0  0  0  0  0  0  0  0  0  0
   21.6645   11.5423    2.5435 C   0  0  0  0  0  0  0  0  0  0  0  0
   22.3692   10.2037    2.1310 C   0  0  0  0  0  0  0  0  0  0  0  0
   22.0200   12.0056    3.7476 C   0  0  0  0  0  0  0  0  0  0  0  0
   21.5646    9.1210    1.8845 N   0  0  0  0  0  0  0  0  0  0  0  0
   23.6092   10.1217    2.0376 O   0  0  0  0  0  0  0  0  0  0  0  0
   20.1369    9.0847    2.1396 C   0  0  0  0  0  0  0  0  0  0  0  0
   19.5568   10.0379    2.7645 O   0  0  0  0  0  0  0  0  0  0  0  0
   19.3999    7.9510    1.9296 C   0  0  1  0  0  0  0  0  0  0  0  0
   18.1914    7.9953    1.2933 C   0  0  0  0  0  0  0  0  0  0  0  0
   19.9211    6.6263    2.0583 C   0  0  0  0  0  0  0  0  0  0  0  0
   19.1175    5.4851    1.7548 C   0  0  0  0  0  0  0  0  0  0  0  0
   17.4503    6.8004    1.0135 C   0  0  0  0  0  0  0  0  0  0  0  0
   16.1611    6.9600    0.4015 F   0  0  0  0  0  0  0  0  0  0  0  0
   17.8878    5.6079    1.2348 C   0  0  0  0  0  0  0  0  0  0  0  0
  1  2  1  0
  2  3  1  0
  1  4  1  0
  4  5  1  0
  5  6  1  0
  3  7  1  0
  5  7  1  0
  6  8  1  0
  6  9  2  0
  8 10  1  0
 10 11  2  0
 12 10  1  6
 12 13  1  0
 12 14  1  0
 14 15  1  0
 13 16  1  0
 16 17  1  0
 15 18  1  0
 16 18  1  0
M  END
$$$$
99
     RDKit          3D

 18 20  0  0  0  0  0  0  0  0999 V2000
   19.7675   12.7267    1.7986 C   0  0  0  0  0  0  0  0  0  0  0  0
   20.3237   11.5430    1.7679 C   0  0  1  0  0  0  0  0  0  0  0  0
   21.0679   11.0397    2.8238 C   0  0  0  0  0  0  0  0  0  0  0  0
   20.1515   13.6673    2.7629 C   0  0  0  0  0  0  0  0  0  0  0  0
   21.5458   11.9823    3.7225 C   0  0  0  0  0  0  0  0  0  0  0  0
   21.3881    9.6483    3.0720 C   0  0  0  0  0  0  0  0  0  0  0  0
   22.4496   11.6151    4.7393 N   0  0  0  0  0  0  0  0  0  0  0  0
   21.1372   13.3430    3.6709 C   0  0  0  0  0  0  0  0  0  0  0  0
   20.2036    8.7772    2.6955 C   0  0  0  0  0  0  0  0  0  0  0  0
   19.5816    8.6396    1.5963 C   0  0  2  0  0  0  0  0  0  0  0  0
   20.0210   10.6120    0.4796 C   0  0  0  0  0  0  0  0  0  0  0  0
   19.4223    9.5592    0.6319 C   0  0  0  0  0  0  0  0  0  0  0  0
   18.6077    7.5497    1.6647 O   0  0  0  0  0  0  0  0  0  0  0  0
   18.7230    6.5803    1.0853 C   0  0  2  0  0  0  0  0  0  0  0  0
   17.6644    5.6585    1.1589 C   0  0  0  0  0  0  0  0  0  0  0  0
   17.9111    4.5783    2.1136 O   0  0  0  0  0  0  0  0  0  0  0  0
   19.9648    5.7534    1.1002 C   0  0  0  0  0  0  0  0  0  0  0  0
   19.4367    4.4828    1.8634 C   0  0  0  0  0  0  0  0  0  0  0  0
  2  1  1  1
  2  3  1  0
  1  4  1  0
  3  5  1  0
  3  6  1  0
  5  7  1  0
  4  8  1  0
  5  8  1  0
  6  9  1  0
  9 10  1  0
  2 11  1  0
 10 12  1  0
 11 12  1  0
 10 13  1  1
 14 13  1  1
 14 15  1  0
 15 16  1  0
 14 17  1  0
 16 18  1  0
 17 18  1  0
M  END
$$$$
