0
     RDKit          3D

  9  9  0  0  0  0  0  0  0  0999 V2000
   21.5628  -13.3263   25.6933 C   0  0  0  0  0  0  0  0  0  0  0  0
   20.3055  -13.6259   25.6650 O   0  0  0  0  0  0  0  0  0  0  0  0
   19.9324  -14.8408   25.0714 C   0  0  1  0  0  0  0  0  0  0  0  0
   18.8049  -15.4492   25.5220 C   0  0  0  0  0  0  0  0  0  0  0  0
   18.2470  -16.5413   24.7147 C   0  0  1  0  0  0  0  0  0  0  0  0
   16.9772  -17.1844   25.1513 O   0  0  0  0  0  0  0  0  0  0  0  0
   18.5804  -16.8580   23.3616 C   0  0  0  0  0  0  0  0  0  0  0  0
   19.7498  -16.0452   22.8450 C   0  0  0  0  0  0  0  0  0  0  0  0
   20.2963  -15.0308   23.6294 C   0  0  0  0  0  0  0  0  0  0  0  0
  1  2  1  0
  3  2  1  6
  3  4  1  0
  4  5  1  0
  5  6  1  6
  5  7  1  0
  7  8  1  0
  3  9  1  0
  8  9  1  0
M  END
$$$$
1
     RDKit          3D

  9  9  0  0  0  0  0  0  0  0999 V2000
   21.8429  -13.4846   25.2647 C   0  0  0  0  0  0  0  0  0  0  0  0
   21.4658  -14.1891   24.1960 C   0  0  0  0  0  0  0  0  0  0  0  0
   20.9282  -13.4315   26.3632 C   0  0  0  0  0  0  0  0  0  0  0  0
   20.1228  -14.6000   26.2970 C   0  0  0  0  0  0  0  0  0  0  0  0
   20.4462  -15.0872   24.1208 C   0  0  0  0  0  0  0  0  0  0  0  0
   19.7267  -15.1240   25.1108 C   0  0  0  0  0  0  0  0  0  0  0  0
   18.4393  -15.9271   24.7863 C   0  0  0  0  0  0  0  0  0  0  0  0
   17.3998  -16.0563   25.6777 N   0  0  0  0  0  0  0  0  0  0  0  0
   18.2693  -16.6742   23.7311 O   0  0  0  0  0  0  0  0  0  0  0  0
  1  2  1  0
  1  3  1  0
  3  4  1  0
  2  5  1  0
  4  6  1  0
  5  6  1  0
  6  7  1  0
  7  8  1  0
  7  9  2  0
M  END
$$$$
10
     RDKit          3D

 12 13  0  0  0  0  0  0  0  0999 V2000
   12.6806  -10.8754   22.5297 C   0  0  2  0  0  0  0  0  0  0  0  0
   13.8971  -10.8172   21.9978 C   0  0  0  0  0  0  0  0  0  0  0  0
   14.3733  -11.8778   21.2155 C   0  0  0  0  0  0  0  0  0  0  0  0
   13.6981  -13.0483   21.1311 C   0  0  1  0  0  0  0  0  0  0  0  0
   12.4253  -13.2089   21.7788 C   0  0  1  0  0  0  0  0  0  0  0  0
   12.1279   -9.8676   23.3808 C   0  0  0  0  0  0  0  0  0  0  0  0
   14.1459  -14.1739   20.2872 C   0  0  0  0  0  0  0  0  0  0  0  0
   11.7763  -14.3890   21.7306 N   0  0  0  0  0  0  0  0  0  0  0  0
   11.9653  -12.0848   22.5019 C   0  0  0  0  0  0  0  0  0  0  0  0
   12.4609  -15.2841   21.0954 C   0  0  0  0  0  0  0  0  0  0  0  0
   13.4826  -15.2605   20.3530 N   0  0  0  0  0  0  0  0  0  0  0  0
   15.3581  -14.0868   19.6507 O   0  0  0  0  0  0  0  0  0  0  0  0
  1  2  1  0
  2  3  1  0
  4  3  1  6
  4  5  1  0
  1  6  1  1
  4  7  1  0
  5  8  1  0
  1  9  1  0
  5  9  1  1
  8 10  1  0
  7 11  1  0
 10 11  1  0
  7 12  2  0
M  END
$$$$
100
     RDKit          3D

 22 25  0  0  0  0  0  0  0  0999 V2000
   20.1096  -12.1790   19.7698 C   0  0  0  0  0  0  0  0  0  0  0  0
   18.8964  -11.7678   19.4847 C   0  0  0  0  0  0  0  0  0  0  0  0
   17.9814  -12.3717   20.5224 C   0  0  1  0  0  0  0  0  0  0  0  0
   20.5540  -13.0047   20.7245 C   0  0  0  0  0  0  0  0  0  0  0  0
   18.2987  -13.1701   21.5413 C   0  0  2  0  0  0  0  0  0  0  0  0
   16.4549  -11.9251   20.4636 C   0  0  2  0  0  0  0  0  0  0  0  0
   19.6516  -13.5275   21.6317 C   0  0  2  0  0  0  0  0  0  0  0  0
   17.1204  -13.5851   22.2228 C   0  0  2  0  0  0  0  0  0  0  0  0
   19.9542  -14.3936   22.7980 C   0  0  0  0  0  0  0  0  0  0  0  0
   17.4108  -14.7196   23.1443 N   0  0  0  0  0  0  0  0  0  0  0  0
   16.0914  -13.0073   21.6386 C   0  0  1  0  0  0  0  0  0  0  0  0
   14.6561  -13.0981   22.0169 N   0  0  0  0  0  0  0  0  0  0  0  0
   15.4983  -11.2603   19.8834 C   0  0  0  0  0  0  0  0  0  0  0  0
   18.7140  -14.9388   23.4857 C   0  0  1  0  0  0  0  0  0  0  0  0
   13.7984  -12.3708   21.2789 C   0  0  0  0  0  0  0  0  0  0  0  0
   14.1699  -11.5183   20.2630 C   0  0  0  0  0  0  0  0  0  0  0  0
   18.9058  -15.9577   24.6271 C   0  0  0  0  0  0  0  0  0  0  0  0
   17.8939  -16.6668   24.9461 O   0  0  0  0  0  0  0  0  0  0  0  0
   20.0581  -15.9678   25.2269 N   0  0  0  0  0  0  0  0  0  0  0  0
   20.6185  -14.8544   25.9502 C   0  0  0  0  0  0  0  0  0  0  0  0
   20.2703  -13.5849   25.5559 O   0  0  0  0  0  0  0  0  0  0  0  0
   21.6443  -14.9301   26.8099 C   0  0  0  0  0  0  0  0  0  0  0  0
  1  2  1  0
  3  2  1  1
  1  4  1  0
  3  5  1  0
  3  6  1  0
  7  4  1  1
  5  7  1  6
  5  8  1  0
  7  9  1  0
  8 10  1  6
  6 11  1  0
  8 11  1  0
 11 12  1  1
  6 13  1  6
  9 14  1  0
 10 14  1  0
 12 15  1  0
 13 16  1  0
 15 16  1  0
 14 17  1  6
 17 18  2  0
 17 19  1  0
 19 20  1  0
 20 21  2  0
 20 22  1  0
M  END
$$$$
101
     RDKit          3D

 22 24  0  0  0  0  0  0  0  0999 V2000
   20.1096  -12.1790   19.7698 C   0  0  0  0  0  0  0  0  0  0  0  0
   18.8964  -11.7678   19.4847 C   0  0  0  0  0  0  0  0  0  0  0  0
   17.9814  -12.3717   20.5224 C   0  0  0  0  0  0  0  0  0  0  0  0
   20.5540  -13.0047   20.7245 C   0  0  0  0  0  0  0  0  0  0  0  0
   18.2987  -13.1701   21.5413 C   0  0  1  0  0  0  0  0  0  0  0  0
   16.3231  -12.1644   20.6503 C   0  0  0  0  0  0  0  0  0  0  0  0
   17.3735  -13.7092   22.4241 O   0  0  0  0  0  0  0  0  0  0  0  0
   19.6680  -13.5717   21.7286 C   0  0  0  0  0  0  0  0  0  0  0  0
   19.9866  -14.3940   22.7960 C   0  0  0  0  0  0  0  0  0  0  0  0
   19.2724  -14.4647   23.9158 N   0  0  0  0  0  0  0  0  0  0  0  0
   17.8282  -14.3486   23.5732 C   0  0  0  0  0  0  0  0  0  0  0  0
   19.7099  -14.5481   25.2257 C   0  0  0  0  0  0  0  0  0  0  0  0
   20.6678  -13.7001   25.6328 C   0  0  0  0  0  0  0  0  0  0  0  0
   19.2971  -15.6509   25.8360 O   0  0  0  0  0  0  0  0  0  0  0  0
   15.5397  -12.3613   21.3247 N   0  0  0  0  0  0  0  0  0  0  0  0
   14.1307  -12.0909   21.1562 C   0  0  2  0  0  0  0  0  0  0  0  0
   13.2858  -12.7648   21.8436 C   0  0  0  0  0  0  0  0  0  0  0  0
   12.0023  -12.2300   22.2996 C   0  0  2  0  0  0  0  0  0  0  0  0
   13.4567  -11.2718   20.2822 C   0  0  0  0  0  0  0  0  0  0  0  0
   12.3163  -10.7485   20.7293 C   0  0  0  0  0  0  0  0  0  0  0  0
   11.1952  -12.9943   23.2990 N   0  0  0  0  0  0  0  0  0  0  0  0
   11.5345  -11.2170   21.7396 N   0  0  0  0  0  0  0  0  0  0  0  0
  1  2  1  0
  2  3  1  0
  1  4  1  0
  3  5  1  0
  3  6  1  0
  5  7  1  6
  4  8  1  0
  5  8  1  0
  8  9  1  0
  9 10  1  0
  7 11  1  0
 10 11  1  0
 10 12  1  0
 12 13  1  0
 12 14  2  0
  6 15  2  3
 15 16  1  0
 16 17  1  6
 17 18  1  0
 16 19  1  0
 19 20  1  0
 18 21  1  6
 18 22  1  0
 20 22  1  0
M  END
$$$$
102
     RDKit          3D

 22 25  0  0  0  0  0  0  0  0999 V2000
   20.1181  -13.1118   20.9806 C   0  0  0  0  0  0  0  0  0  0  0  0
   18.9864  -13.5292   21.5966 C   0  0  1  0  0  0  0  0  0  0  0  0
   20.0110  -12.1472   19.8861 C   0  0  2  0  0  0  0  0  0  0  0  0
   21.1933  -11.7173   19.2054 F   0  0  0  0  0  0  0  0  0  0  0  0
   18.8636  -11.5405   19.4809 C   0  0  0  0  0  0  0  0  0  0  0  0
   17.6377  -12.0835   20.1973 C   0  0  1  0  0  0  0  0  0  0  0  0
   18.9911  -14.4124   22.7194 C   0  0  1  0  0  0  0  0  0  0  0  0
   17.8200  -14.9373   23.1247 C   0  0  2  0  0  0  0  0  0  0  0  0
   20.1170  -15.3951   22.9042 C   0  0  0  0  0  0  0  0  0  0  0  0
   17.7240  -12.9395   21.2034 C   0  0  0  0  0  0  0  0  0  0  0  0
   19.9905  -16.3107   23.9742 C   0  0  0  0  0  0  0  0  0  0  0  0
   16.5197  -13.3893   21.9667 C   0  0  0  0  0  0  0  0  0  0  0  0
   16.5949  -14.3333   22.8995 N   0  0  0  0  0  0  0  0  0  0  0  0
   15.2953  -12.8485   21.6331 N   0  0  0  0  0  0  0  0  0  0  0  0
   21.0394  -17.0784   24.4553 C   0  0  0  0  0  0  0  0  0  0  0  0
   15.0691  -11.7536   20.7713 C   0  0  0  0  0  0  0  0  0  0  0  0
   16.3413  -11.4409   19.8773 C   0  0  0  0  0  0  0  0  0  0  0  0
   20.7689  -18.2089   25.0674 O   0  0  0  0  0  0  0  0  0  0  0  0
   17.7923  -16.0405   24.1950 C   0  0  0  0  0  0  0  0  0  0  0  0
   13.9558  -11.2770   20.4948 N   0  0  0  0  0  0  0  0  0  0  0  0
   22.2734  -16.6484   24.3272 O   0  0  0  0  0  0  0  0  0  0  0  0
   18.8707  -16.5737   24.6285 C   0  0  0  0  0  0  0  0  0  0  0  0
  2  1  1  1
  1  3  1  0
  3  4  1  1
  3  5  1  0
  6  5  1  1
  2  7  1  0
  7  8  1  0
  7  9  1  6
  2 10  1  0
  6 10  1  0
  9 11  1  0
 10 12  1  0
  8 13  1  0
 12 13  1  0
 12 14  2  0
 11 15  1  0
 14 16  1  0
  6 17  1  0
 16 17  1  0
 15 18  1  0
  8 19  1  1
 16 20  2  0
 15 21  2  0
 11 22  1  0
 19 22  1  0
M  END
$$$$
103
     RDKit          3D

 22 23  0  0  0  0  0  0  0  0999 V2000
   20.1702  -12.9575   20.7349 C   0  0  0  0  0  0  0  0  0  0  0  0
   19.0426  -13.4565   21.4208 C   0  0  0  0  0  0  0  0  0  0  0  0
   19.9671  -12.0228   19.6887 C   0  0  0  0  0  0  0  0  0  0  0  0
   18.5822  -11.7188   19.4320 C   0  0  0  0  0  0  0  0  0  0  0  0
   17.5276  -12.1102   20.1335 C   0  0  1  0  0  0  0  0  0  0  0  0
   16.1719  -11.7544   19.8518 C   0  0  0  0  0  0  0  0  0  0  0  0
   17.7570  -13.1217   21.1595 C   0  0  0  0  0  0  0  0  0  0  0  0
   15.5642  -11.9274   18.8204 O   0  0  0  0  0  0  0  0  0  0  0  0
   19.4290  -14.5687   22.6226 C   0  0  0  0  0  0  0  0  0  0  0  0
   15.2303  -11.7702   21.0061 N   0  0  0  0  0  0  0  0  0  0  0  0
   19.4163  -14.0610   23.8968 N   0  0  0  0  0  0  0  0  0  0  0  0
   19.7697  -15.6420   22.3434 O   0  0  0  0  0  0  0  0  0  0  0  0
   20.0128  -14.5350   24.9238 C   0  0  0  0  0  0  0  0  0  0  0  0
   13.8091  -11.7514   20.9937 C   0  0  1  0  0  0  0  0  0  0  0  0
   13.3092  -12.8919   20.9606 C   0  0  0  0  0  0  0  0  0  0  0  0
   20.8778  -13.6644   25.7213 C   0  0  0  0  0  0  0  0  0  0  0  0
   12.5570  -13.2240   22.1313 C   0  0  0  0  0  0  0  0  0  0  0  0
   11.7649  -12.1642   22.4511 C   0  0  1  0  0  0  0  0  0  0  0  0
   19.1824  -15.0234   26.0267 C   0  0  0  0  0  0  0  0  0  0  0  0
   10.9541  -12.3400   23.7335 C   0  0  0  0  0  0  0  0  0  0  0  0
   11.3706  -11.9232   24.8672 C   0  0  0  0  0  0  0  0  0  0  0  0
   12.8315  -10.9567   22.4704 C   0  0  0  0  0  0  0  0  0  0  0  0
  1  2  1  0
  1  3  1  0
  3  4  1  0
  4  5  1  0
  5  6  1  6
  2  7  1  0
  5  7  1  0
  6  8  2  0
  2  9  1  0
  6 10  1  0
  9 11  1  0
  9 12  2  0
 11 13  1  0
 14 10  1  1
 14 15  1  0
 13 16  1  0
 15 17  1  0
 17 18  1  0
 13 19  1  0
 18 20  1  1
 20 21  1  0
 14 22  1  0
 18 22  1  0
M  END
$$$$
104
     RDKit          3D

 22 26  0  0  0  0  0  0  0  0999 V2000
   20.1702  -12.9575   20.7349 C   0  0  0  0  0  0  0  0  0  0  0  0
   19.0426  -13.4565   21.4208 C   0  0  0  0  0  0  0  0  0  0  0  0
   17.7449  -12.9106   21.0064 C   0  0  2  0  0  0  0  0  0  0  0  0
   17.6562  -11.8201   20.0741 C   0  0  2  0  0  0  0  0  0  0  0  0
   16.3975  -11.2782   19.7486 N   0  0  0  0  0  0  0  0  0  0  0  0
   16.4794  -13.3273   21.5455 C   0  0  2  0  0  0  0  0  0  0  0  0
   18.8869  -11.4130   19.4692 C   0  0  0  0  0  0  0  0  0  0  0  0
   19.4293  -14.4107   22.4635 C   0  0  2  0  0  0  0  0  0  0  0  0
   16.5262  -14.3945   22.5205 N   0  0  0  0  0  0  0  0  0  0  0  0
   20.0508  -12.0311   19.7622 C   0  0  0  0  0  0  0  0  0  0  0  0
   15.3165  -12.8885   21.1813 C   0  0  2  0  0  0  0  0  0  0  0  0
   15.2657  -11.8238   20.2348 C   0  0  1  0  0  0  0  0  0  0  0  0
   14.0247  -13.3440   21.7044 C   0  0  0  0  0  0  0  0  0  0  0  0
   12.8164  -12.7895   21.2378 C   0  0  1  0  0  0  0  0  0  0  0  0
   11.5495  -13.3019   21.7384 N   0  0  0  0  0  0  0  0  0  0  0  0
   18.1604  -14.8278   23.1081 C   0  0  1  0  0  0  0  0  0  0  0  0
   20.4636  -14.7537   23.1007 C   0  0  0  0  0  0  0  0  0  0  0  0
   12.7660  -11.6986   20.4001 C   0  0  0  0  0  0  0  0  0  0  0  0
   14.0011  -11.2327   19.8736 C   0  0  0  0  0  0  0  0  0  0  0  0
   20.4502  -15.4935   24.3056 C   0  0  0  0  0  0  0  0  0  0  0  0
   17.9162  -15.7759   24.1098 C   0  0  0  0  0  0  0  0  0  0  0  0
   19.2381  -16.0049   24.8141 C   0  0  0  0  0  0  0  0  0  0  0  0
  1  2  1  0
  3  2  1  1
  3  4  1  0
  4  5  1  0
  3  6  1  0
  4  7  1  6
  2  8  1  0
  6  9  1  6
  1 10  1  0
  7 10  1  0
  6 11  1  0
  5 12  1  0
 11 12  1  0
 11 13  1  1
 13 14  1  0
 14 15  1  1
  8 16  1  0
  9 16  1  0
  8 17  1  1
 14 18  1  0
 12 19  1  1
 18 19  1  0
 17 20  1  0
 16 21  1  6
 20 22  1  0
 21 22  1  0
M  END
$$$$
105
     RDKit          3D

 22 24  0  0  0  0  0  0  0  0999 V2000
   20.5014  -11.9533   19.5846 C   0  0  0  0  0  0  0  0  0  0  0  0
   20.0140  -12.6289   20.7017 C   0  0  0  0  0  0  0  0  0  0  0  0
   18.5722  -12.6359   20.9348 C   0  0  0  0  0  0  0  0  0  0  0  0
   17.6341  -12.0409   20.1198 C   0  0  1  0  0  0  0  0  0  0  0  0
   19.2834  -11.6349   18.6589 C   0  0  0  0  0  0  0  0  0  0  0  0
   18.0322  -11.5750   18.9639 C   0  0  0  0  0  0  0  0  0  0  0  0
   17.9572  -13.3645   22.1450 O   0  0  0  0  0  0  0  0  0  0  0  0
   16.0983  -12.0963   20.5965 C   0  0  0  0  0  0  0  0  0  0  0  0
   18.3010  -14.8522   22.2083 C   0  0  2  0  0  0  0  0  0  0  0  0
   15.3800  -11.1377   19.9820 O   0  0  0  0  0  0  0  0  0  0  0  0
   15.5931  -12.8019   21.4867 N   0  0  0  0  0  0  0  0  0  0  0  0
   17.1885  -15.5052   22.0727 C   0  0  0  0  0  0  0  0  0  0  0  0
   19.0041  -14.9699   23.5979 C   0  0  0  0  0  0  0  0  0  0  0  0
   18.2843  -15.5204   24.4978 C   0  0  1  0  0  0  0  0  0  0  0  0
   17.1483  -16.2485   24.1493 N   0  0  0  0  0  0  0  0  0  0  0  0
   18.8187  -15.3580   25.8777 C   0  0  0  0  0  0  0  0  0  0  0  0
   16.6963  -17.0316   25.2205 O   0  0  0  0  0  0  0  0  0  0  0  0
   16.6643  -16.3517   22.9801 C   0  0  0  0  0  0  0  0  0  0  0  0
   20.1801  -14.7626   25.7828 C   0  0  0  0  0  0  0  0  0  0  0  0
   20.2989  -14.4603   23.8541 C   0  0  0  0  0  0  0  0  0  0  0  0
   20.7278  -14.3714   25.0962 C   0  0  0  0  0  0  0  0  0  0  0  0
   14.2178  -12.9560   21.7679 C   0  0  0  0  0  0  0  0  0  0  0  0
  1  2  1  0
  2  3  1  0
  3  4  1  0
  1  5  1  0
  4  6  1  0
  5  6  1  0
  3  7  1  0
  4  8  1  6
  9  7  1  1
  8 10  2  0
  8 11  1  0
  9 12  1  0
  9 13  1  0
 13 14  1  0
 14 15  1  0
 14 16  1  6
 15 17  1  0
 12 18  1  0
 15 18  1  0
 16 19  1  0
 13 20  1  0
 19 21  1  0
 20 21  1  0
 11 22  1  0
M  END
$$$$
106
     RDKit          3D

 22 24  0  0  0  0  0  0  0  0999 V2000
   20.1885  -12.8464   20.6593 C   0  0  0  0  0  0  0  0  0  0  0  0
   19.8070  -11.9017   19.7794 C   0  0  0  0  0  0  0  0  0  0  0  0
   19.0681  -13.2738   21.5665 C   0  0  1  0  0  0  0  0  0  0  0  0
   18.3123  -11.8377   19.6581 C   0  0  0  0  0  0  0  0  0  0  0  0
   17.8863  -12.6873   20.8199 C   0  0  2  0  0  0  0  0  0  0  0  0
   16.4339  -12.8276   21.2078 C   0  0  2  0  0  0  0  0  0  0  0  0
   15.4755  -12.0298   20.7067 C   0  0  0  0  0  0  0  0  0  0  0  0
   14.1050  -12.1117   21.1088 C   0  0  0  0  0  0  0  0  0  0  0  0
   18.9214  -14.3804   22.3537 C   0  0  0  0  0  0  0  0  0  0  0  0
   16.0378  -13.7983   22.1962 N   0  0  0  0  0  0  0  0  0  0  0  0
   13.8222  -13.1114   22.0255 N   0  0  0  0  0  0  0  0  0  0  0  0
   14.6389  -14.0045   22.3416 C   0  0  0  0  0  0  0  0  0  0  0  0
   18.7971  -15.5831   22.1114 O   0  0  0  0  0  0  0  0  0  0  0  0
   18.7950  -13.9638   23.8162 N   0  0  0  0  0  0  0  0  0  0  0  0
   18.6714  -14.9985   24.7926 C   0  0  1  0  0  0  0  0  0  0  0  0
   17.7276  -15.8100   24.9473 C   0  0  0  0  0  0  0  0  0  0  0  0
   17.7836  -16.8781   25.8877 C   0  0  0  0  0  0  0  0  0  0  0  0
   19.9119  -15.3609   25.5908 C   0  0  2  0  0  0  0  0  0  0  0  0
   18.8273  -17.1273   26.6029 C   0  0  0  0  0  0  0  0  0  0  0  0
   19.9276  -16.3084   26.4625 C   0  0  0  0  0  0  0  0  0  0  0  0
   20.8358  -14.1289   25.6677 C   0  0  0  0  0  0  0  0  0  0  0  0
   21.0882  -13.4375   26.7684 C   0  0  0  0  0  0  0  0  0  0  0  0
  1  2  1  0
  1  3  1  0
  2  4  1  0
  3  5  1  0
  5  4  1  1
  5  6  1  0
  6  7  1  1
  7  8  1  0
  3  9  1  6
  6 10  1  0
  8 11  1  0
 10 12  1  0
 11 12  1  0
  9 13  2  0
  9 14  1  0
 15 14  1  6
 15 16  1  0
 16 17  1  0
 15 18  1  0
 17 19  1  0
 18 20  1  0
 19 20  1  0
 18 21  1  1
 21 22  1  0
M  END
$$$$
107
     RDKit          3D

 22 24  0  0  0  0  0  0  0  0999 V2000
   21.2257  -12.9695   26.2331 C   0  0  0  0  0  0  0  0  0  0  0  0
   20.7202  -13.7781   25.3481 C   0  0  1  0  0  0  0  0  0  0  0  0
   20.8162  -13.5632   23.9252 O   0  0  0  0  0  0  0  0  0  0  0  0
   20.0312  -15.0910   25.6250 C   0  0  0  0  0  0  0  0  0  0  0  0
   19.9521  -14.3733   23.1674 C   0  0  2  0  0  0  0  0  0  0  0  0
   19.7500  -13.7494   21.8815 C   0  0  2  0  0  0  0  0  0  0  0  0
   19.1541  -15.6521   24.7350 C   0  0  2  0  0  0  0  0  0  0  0  0
   18.3750  -16.8288   25.1587 C   0  0  0  0  0  0  0  0  0  0  0  0
   19.0387  -15.2223   23.3906 C   0  0  2  0  0  0  0  0  0  0  0  0
   18.1704  -15.8097   22.5059 C   0  0  0  0  0  0  0  0  0  0  0  0
   18.1030  -15.2199   21.2500 C   0  0  1  0  0  0  0  0  0  0  0  0
   17.0540  -15.7151   20.3686 O   0  0  0  0  0  0  0  0  0  0  0  0
   18.8643  -14.1826   20.9072 C   0  0  0  0  0  0  0  0  0  0  0  0
   15.7590  -15.0739   20.3480 C   0  0  0  0  0  0  0  0  0  0  0  0
   14.7118  -15.7083   20.1510 C   0  0  0  0  0  0  0  0  0  0  0  0
   20.6495  -12.6435   21.3512 O   0  0  0  0  0  0  0  0  0  0  0  0
   15.5495  -13.7230   20.9395 C   0  0  0  0  0  0  0  0  0  0  0  0
   13.3348  -14.9617   20.0948 C   0  0  0  0  0  0  0  0  0  0  0  0
   14.3782  -13.0339   20.9187 C   0  0  0  0  0  0  0  0  0  0  0  0
   19.9546  -11.8445   20.5569 C   0  0  0  0  0  0  0  0  0  0  0  0
   13.2405  -13.6762   20.4419 C   0  0  0  0  0  0  0  0  0  0  0  0
   14.1658  -11.4986   21.3419 C   0  0  0  0  0  0  0  0  0  0  0  0
  2  1  1  6
  2  3  1  0
  2  4  1  0
  5  3  1  1
  5  6  1  0
  4  7  1  0
  7  8  1  6
  5  9  1  0
  7  9  1  0
  9 10  1  6
 10 11  1  0
 11 12  1  1
  6 13  1  0
 11 13  1  0
 12 14  1  0
 14 15  2  0
  6 16  1  6
 14 17  1  0
 15 18  1  0
 17 19  1  0
 16 20  1  0
 18 21  1  0
 19 21  1  0
 19 22  1  0
M  END
$$$$
108
     RDKit          3D

 22 25  0  0  0  0  0  0  0  0999 V2000
   19.7530  -12.0841   19.7492 C   0  0  0  0  0  0  0  0  0  0  0  0
   18.4622  -12.0998   19.9560 C   0  0  0  0  0  0  0  0  0  0  0  0
   17.4315  -11.3794   19.3805 N   0  0  0  0  0  0  0  0  0  0  0  0
   17.8566  -13.0075   20.9578 C   0  0  2  0  0  0  0  0  0  0  0  0
   18.8644  -13.9420   21.4961 C   0  0  2  0  0  0  0  0  0  0  0  0
   16.2268  -11.6497   19.8942 C   0  0  2  0  0  0  0  0  0  0  0  0
   16.4838  -12.7241   20.9585 C   0  0  2  0  0  0  0  0  0  0  0  0
   15.0230  -11.2362   19.4249 N   0  0  0  0  0  0  0  0  0  0  0  0
   15.5383  -13.3226   21.9248 C   0  0  0  0  0  0  0  0  0  0  0  0
   14.2197  -12.7808   21.7005 N   0  0  0  0  0  0  0  0  0  0  0  0
   13.9722  -11.7631   20.3875 C   0  0  0  0  0  0  0  0  0  0  0  0
   20.5622  -12.7670   20.4372 C   0  0  0  0  0  0  0  0  0  0  0  0
   18.2997  -14.8349   22.5934 C   0  0  0  0  0  0  0  0  0  0  0  0
   17.5078  -15.7028   22.3885 O   0  0  0  0  0  0  0  0  0  0  0  0
   20.1729  -13.8830   21.2637 C   0  0  0  0  0  0  0  0  0  0  0  0
   19.0267  -14.9335   23.8021 N   0  0  0  0  0  0  0  0  0  0  0  0
   20.1801  -14.2862   24.1137 C   0  0  0  0  0  0  0  0  0  0  0  0
   21.0326  -13.8339   23.4460 O   0  0  0  0  0  0  0  0  0  0  0  0
   20.6541  -14.4042   25.5571 C   0  0  1  0  0  0  0  0  0  0  0  0
   21.2010  -13.2805   26.1070 C   0  0  0  0  0  0  0  0  0  0  0  0
   18.3670  -15.6770   24.9121 C   0  0  0  0  0  0  0  0  0  0  0  0
   19.5320  -15.5088   25.9880 C   0  0  0  0  0  0  0  0  0  0  0  0
  1  2  1  0
  2  3  1  0
  4  2  1  6
  4  5  1  0
  6  3  1  6
  4  7  1  0
  6  7  1  0
  6  8  1  0
  7  9  1  1
  9 10  1  0
  8 11  1  0
 10 11  1  0
  1 12  1  0
  5 13  1  1
 13 14  2  0
  5 15  1  0
 12 15  1  0
 13 16  1  0
 16 17  1  0
 17 18  2  0
 17 19  1  0
 19 20  1  1
 16 21  1  0
 19 22  1  0
 21 22  1  0
M  END
$$$$
109
     RDKit          3D

 22 24  0  0  0  0  0  0  0  0999 V2000
   20.1885  -12.8464   20.6593 C   0  0  0  0  0  0  0  0  0  0  0  0
   19.8070  -11.9017   19.7794 C   0  0  0  0  0  0  0  0  0  0  0  0
   19.0681  -13.2738   21.5665 C   0  0  1  0  0  0  0  0  0  0  0  0
   18.3123  -11.8377   19.6581 C   0  0  0  0  0  0  0  0  0  0  0  0
   17.8863  -12.6873   20.8199 C   0  0  2  0  0  0  0  0  0  0  0  0
   16.4339  -12.8276   21.2078 C   0  0  2  0  0  0  0  0  0  0  0  0
   15.4755  -12.0298   20.7067 C   0  0  0  0  0  0  0  0  0  0  0  0
   14.1050  -12.1117   21.1088 C   0  0  0  0  0  0  0  0  0  0  0  0
   18.9214  -14.3804   22.3537 C   0  0  0  0  0  0  0  0  0  0  0  0
   16.0378  -13.7983   22.1962 N   0  0  0  0  0  0  0  0  0  0  0  0
   13.8222  -13.1114   22.0255 N   0  0  0  0  0  0  0  0  0  0  0  0
   14.6389  -14.0045   22.3416 C   0  0  0  0  0  0  0  0  0  0  0  0
   18.7971  -15.5831   22.1114 O   0  0  0  0  0  0  0  0  0  0  0  0
   18.7950  -13.9638   23.8162 N   0  0  0  0  0  0  0  0  0  0  0  0
   18.6714  -14.9985   24.7926 C   0  0  2  0  0  0  0  0  0  0  0  0
   17.7276  -15.8100   24.9473 C   0  0  0  0  0  0  0  0  0  0  0  0
   17.7836  -16.8781   25.8877 C   0  0  0  0  0  0  0  0  0  0  0  0
   19.7279  -15.0885   25.7840 C   0  0  2  0  0  0  0  0  0  0  0  0
   19.7567  -16.0027   26.7599 C   0  0  0  0  0  0  0  0  0  0  0  0
   16.7454  -17.7870   25.8569 F   0  0  0  0  0  0  0  0  0  0  0  0
   18.7983  -16.9476   26.6982 C   0  0  0  0  0  0  0  0  0  0  0  0
   20.9263  -13.8745   25.7749 C   0  0  0  0  0  0  0  0  0  0  0  0
  1  2  1  0
  1  3  1  0
  2  4  1  0
  3  5  1  0
  5  4  1  1
  5  6  1  0
  6  7  1  1
  7  8  1  0
  3  9  1  6
  6 10  1  0
  8 11  1  0
 10 12  1  0
 11 12  1  0
  9 13  2  0
  9 14  1  0
 15 14  1  1
 15 16  1  0
 16 17  1  0
 15 18  1  0
 18 19  1  0
 17 20  1  0
 17 21  1  0
 19 21  1  0
 18 22  1  1
M  END
$$$$
11
     RDKit          3D

 13 15  0  0  0  0  0  0  0  0999 V2000
   11.5607  -11.0747   23.5713 C   0  0  0  0  0  0  0  0  0  0  0  0
   12.5827  -10.5475   22.8494 C   0  0  0  0  0  0  0  0  0  0  0  0
   12.9524  -11.4266   21.8792 C   0  0  2  0  0  0  0  0  0  0  0  0
   12.4981  -12.6972   21.9190 C   0  0  1  0  0  0  0  0  0  0  0  0
   14.0275  -11.0305   20.8967 C   0  0  0  0  0  0  0  0  0  0  0  0
   13.1182  -13.5693   20.8793 C   0  0  0  0  0  0  0  0  0  0  0  0
   11.7488  -13.0740   22.8179 N   0  0  0  0  0  0  0  0  0  0  0  0
   12.7055  -14.9095   20.8196 C   0  0  0  0  0  0  0  0  0  0  0  0
   11.1809  -12.3117   23.6948 C   0  0  0  0  0  0  0  0  0  0  0  0
   14.1960  -13.1022   20.1419 C   0  0  2  0  0  0  0  0  0  0  0  0
   14.5101  -11.8636   20.0697 C   0  0  0  0  0  0  0  0  0  0  0  0
   13.4927  -15.5573   19.7274 C   0  0  0  0  0  0  0  0  0  0  0  0
   14.7435  -14.2724   19.2272 S   0  0  0  0  0  0  0  0  0  0  0  0
  1  2  1  0
  3  2  1  1
  3  4  1  0
  3  5  1  0
  4  6  1  0
  4  7  1  1
  6  8  2  0
  1  9  1  0
  7  9  1  0
  6 10  1  0
  5 11  1  0
 10 11  1  6
  8 12  1  0
 10 13  1  0
 12 13  1  0
M  END
$$$$
110
     RDKit          3D

 22 24  0  0  0  0  0  0  0  0999 V2000
   20.1096  -12.1790   19.7698 C   0  0  0  0  0  0  0  0  0  0  0  0
   18.8964  -11.7678   19.4847 C   0  0  0  0  0  0  0  0  0  0  0  0
   17.9814  -12.3717   20.5224 C   0  0  0  0  0  0  0  0  0  0  0  0
   20.5540  -13.0047   20.7245 C   0  0  0  0  0  0  0  0  0  0  0  0
   18.2987  -13.1701   21.5413 C   0  0  1  0  0  0  0  0  0  0  0  0
   16.3231  -12.1644   20.6503 C   0  0  0  0  0  0  0  0  0  0  0  0
   17.3735  -13.7092   22.4241 O   0  0  0  0  0  0  0  0  0  0  0  0
   19.6680  -13.5717   21.7286 C   0  0  0  0  0  0  0  0  0  0  0  0
   19.9866  -14.3940   22.7960 C   0  0  0  0  0  0  0  0  0  0  0  0
   19.2724  -14.4647   23.9158 N   0  0  0  0  0  0  0  0  0  0  0  0
   17.8282  -14.3486   23.5732 C   0  0  0  0  0  0  0  0  0  0  0  0
   19.7099  -14.5481   25.2257 C   0  0  0  0  0  0  0  0  0  0  0  0
   20.6678  -13.7001   25.6328 C   0  0  0  0  0  0  0  0  0  0  0  0
   19.2971  -15.6509   25.8360 O   0  0  0  0  0  0  0  0  0  0  0  0
   15.5397  -12.3613   21.3247 N   0  0  0  0  0  0  0  0  0  0  0  0
   14.1307  -12.0909   21.1562 C   0  0  1  0  0  0  0  0  0  0  0  0
   13.2858  -12.7648   21.8436 C   0  0  0  0  0  0  0  0  0  0  0  0
   12.0023  -12.2300   22.2996 C   0  0  2  0  0  0  0  0  0  0  0  0
   13.7715  -10.8562   20.7496 N   0  0  0  0  0  0  0  0  0  0  0  0
   11.0451  -13.0331   23.0938 N   0  0  0  0  0  0  0  0  0  0  0  0
   12.4976  -10.3771   21.0846 C   0  0  0  0  0  0  0  0  0  0  0  0
   11.6372  -11.0544   21.8409 N   0  0  0  0  0  0  0  0  0  0  0  0
  1  2  1  0
  2  3  1  0
  1  4  1  0
  3  5  1  0
  3  6  1  0
  5  7  1  6
  4  8  1  0
  5  8  1  0
  8  9  1  0
  9 10  1  0
  7 11  1  0
 10 11  1  0
 10 12  1  0
 12 13  1  0
 12 14  2  0
  6 15  2  3
 15 16  1  0
 16 17  1  1
 17 18  1  0
 16 19  1  0
 18 20  1  6
 19 21  1  0
 18 22  1  0
 21 22  1  0
M  END
$$$$
111
     RDKit          3D

 22 26  0  0  0  0  0  0  0  0999 V2000
   19.7530  -12.0841   19.7492 C   0  0  0  0  0  0  0  0  0  0  0  0
   18.4622  -12.0998   19.9560 C   0  0  0  0  0  0  0  0  0  0  0  0
   17.4315  -11.3794   19.3805 N   0  0  0  0  0  0  0  0  0  0  0  0
   17.8566  -13.0075   20.9578 C   0  0  2  0  0  0  0  0  0  0  0  0
   18.8644  -13.9420   21.4961 C   0  0  1  0  0  0  0  0  0  0  0  0
   16.2268  -11.6497   19.8942 C   0  0  2  0  0  0  0  0  0  0  0  0
   16.4990  -12.7074   20.9302 C   0  0  2  0  0  0  0  0  0  0  0  0
   20.0913  -13.8551   21.3986 C   0  0  1  0  0  0  0  0  0  0  0  0
   20.9579  -14.7277   22.1904 O   0  0  0  0  0  0  0  0  0  0  0  0
   15.4065  -13.0531   21.8393 C   0  0  0  0  0  0  0  0  0  0  0  0
   18.1741  -14.8923   22.6728 C   0  0  0  0  0  0  0  0  0  0  0  0
   20.5998  -14.9776   23.5345 C   0  0  2  0  0  0  0  0  0  0  0  0
   20.6349  -13.0697   20.4066 C   0  0  0  0  0  0  0  0  0  0  0  0
   14.8923  -11.2402   19.5891 C   0  0  0  0  0  0  0  0  0  0  0  0
   14.1258  -12.6101   21.4307 C   0  0  0  0  0  0  0  0  0  0  0  0
   13.8975  -11.6970   20.4173 C   0  0  0  0  0  0  0  0  0  0  0  0
   21.5150  -15.1846   24.4696 C   0  0  0  0  0  0  0  0  0  0  0  0
   19.1049  -15.2489   23.6682 C   0  0  1  0  0  0  0  0  0  0  0  0
   18.7371  -15.3986   25.0227 C   0  0  1  0  0  0  0  0  0  0  0  0
   17.3404  -15.5812   25.2678 N   0  0  0  0  0  0  0  0  0  0  0  0
   19.6550  -15.6087   26.1332 C   0  0  0  0  0  0  0  0  0  0  0  0
   21.0290  -15.4390   25.8461 C   0  0  0  0  0  0  0  0  0  0  0  0
  1  2  1  0
  2  3  1  0
  4  2  1  6
  4  5  1  0
  3  6  1  0
  4  7  1  0
  6  7  1  0
  5  8  1  0
  8  9  1  0
  7 10  1  1
  5 11  1  1
  9 12  1  0
  1 13  1  0
  8 13  1  6
  6 14  1  6
 10 15  1  0
 14 16  1  0
 15 16  1  0
 12 17  1  6
 18 11  1  1
 12 18  1  0
 18 19  1  0
 19 20  1  6
 19 21  1  0
 17 22  1  0
 21 22  1  0
M  END
$$$$
112
     RDKit          3D

 22 25  0  0  0  0  0  0  0  0999 V2000
   20.2497  -11.7989   19.2731 C   0  0  0  0  0  0  0  0  0  0  0  0
   20.1965  -12.4320   20.4769 C   0  0  0  0  0  0  0  0  0  0  0  0
   18.9673  -12.7485   21.0767 C   0  0  1  0  0  0  0  0  0  0  0  0
   18.9773  -11.4173   18.9521 N   0  0  0  0  0  0  0  0  0  0  0  0
   17.7264  -12.3631   20.5816 C   0  0  2  0  0  0  0  0  0  0  0  0
   18.6912  -13.8291   22.2049 C   0  0  2  0  0  0  0  0  0  0  0  0
   17.7923  -11.5845   19.4217 C   0  0  0  0  0  0  0  0  0  0  0  0
   16.4277  -12.6796   21.2695 C   0  0  2  0  0  0  0  0  0  0  0  0
   17.5182  -14.0662   22.7322 C   0  0  2  0  0  0  0  0  0  0  0  0
   17.5463  -15.0605   23.7799 N   0  0  0  0  0  0  0  0  0  0  0  0
   16.3908  -13.5264   22.2665 N   0  0  0  0  0  0  0  0  0  0  0  0
   15.1807  -12.1524   20.7632 C   0  0  0  0  0  0  0  0  0  0  0  0
   14.5872  -12.4449   19.7386 C   0  0  0  0  0  0  0  0  0  0  0  0
   13.3016  -11.9054   19.4569 N   0  0  0  0  0  0  0  0  0  0  0  0
   13.0317  -11.0200   20.5397 C   0  0  0  0  0  0  0  0  0  0  0  0
   18.6483  -15.5928   24.1608 C   0  0  2  0  0  0  0  0  0  0  0  0
   18.5597  -16.4502   25.2682 C   0  0  0  0  0  0  0  0  0  0  0  0
   19.9220  -14.6048   22.8573 S   0  0  0  0  0  0  0  0  0  0  0  0
   14.6015  -11.0991   21.6643 S   0  0  0  0  0  0  0  0  0  0  0  0
   18.9210  -15.9410   26.4384 C   0  0  0  0  0  0  0  0  0  0  0  0
   19.8846  -14.8288   26.4966 C   0  0  0  0  0  0  0  0  0  0  0  0
   20.0053  -13.8060   25.5967 O   0  0  0  0  0  0  0  0  0  0  0  0
  1  2  1  0
  3  2  1  6
  1  4  1  0
  3  5  1  0
  3  6  1  0
  4  7  1  0
  5  7  1  1
  5  8  1  0
  6  9  1  0
  9 10  1  6
  8 11  1  0
  9 11  1  0
  8 12  1  6
 12 13  1  0
 13 14  1  0
 14 15  1  0
 10 16  1  0
 16 17  1  1
  6 18  1  1
 16 18  1  0
 12 19  1  0
 15 19  1  0
 17 20  1  0
 20 21  1  0
 21 22  1  0
M  END
$$$$
113
     RDKit          3D

 22 25  0  0  0  0  0  0  0  0999 V2000
   20.1181  -13.1118   20.9806 C   0  0  0  0  0  0  0  0  0  0  0  0
   18.9864  -13.5292   21.5966 C   0  0  1  0  0  0  0  0  0  0  0  0
   20.0110  -12.1472   19.8861 C   0  0  1  0  0  0  0  0  0  0  0  0
   21.1933  -11.7173   19.2054 F   0  0  0  0  0  0  0  0  0  0  0  0
   17.6669  -12.9225   21.0788 C   0  0  1  0  0  0  0  0  0  0  0  0
   18.7583  -14.5429   22.6653 C   0  0  1  0  0  0  0  0  0  0  0  0
   18.7786  -11.8085   19.4825 C   0  0  0  0  0  0  0  0  0  0  0  0
   17.5954  -14.9202   22.9359 N   0  0  0  0  0  0  0  0  0  0  0  0
   16.4262  -14.3024   22.6046 N   0  0  0  0  0  0  0  0  0  0  0  0
   19.7852  -15.3821   23.3817 C   0  0  0  0  0  0  0  0  0  0  0  0
   16.5189  -13.3280   21.8902 C   0  0  2  0  0  0  0  0  0  0  0  0
   17.7826  -12.0654   20.0884 C   0  0  0  0  0  0  0  0  0  0  0  0
   15.2175  -12.6181   21.3783 C   0  0  1  0  0  0  0  0  0  0  0  0
   15.3124  -11.3034   21.0170 N   0  0  0  0  0  0  0  0  0  0  0  0
   20.4730  -14.7317   24.2750 N   0  0  0  0  0  0  0  0  0  0  0  0
   19.9043  -13.6733   25.1339 C   0  0  0  0  0  0  0  0  0  0  0  0
   21.9626  -14.4325   24.1493 C   0  0  0  0  0  0  0  0  0  0  0  0
   14.0634  -13.2874   21.1271 C   0  0  0  0  0  0  0  0  0  0  0  0
   20.9300  -13.3434   26.2064 C   0  0  0  0  0  0  0  0  0  0  0  0
   14.0915  -10.8559   20.7609 C   0  0  0  0  0  0  0  0  0  0  0  0
   22.2899  -13.7010   25.5066 C   0  0  0  0  0  0  0  0  0  0  0  0
   13.1434  -12.4351   20.9085 C   0  0  0  0  0  0  0  0  0  0  0  0
  2  1  1  6
  1  3  1  0
  3  4  1  6
  2  5  1  0
  2  6  1  0
  3  7  1  0
  6  8  1  0
  8  9  1  0
  6 10  1  6
  5 11  1  0
 11  9  1  6
  5 12  1  1
  7 12  1  0
 11 13  1  0
 13 14  1  0
 10 15  1  0
 15 16  1  0
 15 17  1  0
 13 18  1  6
 16 19  1  0
 14 20  1  0
 17 21  1  0
 19 21  1  0
 18 22  1  0
 20 22  1  0
M  END
$$$$
114
     RDKit          3D

 22 24  0  0  0  0  0  0  0  0999 V2000
   21.3798  -13.0882   26.4702 C   0  0  0  0  0  0  0  0  0  0  0  0
   20.7808  -13.7332   25.4153 C   0  0  2  0  0  0  0  0  0  0  0  0
   19.6965  -14.7349   25.6834 C   0  0  0  0  0  0  0  0  0  0  0  0
   19.2569  -15.4684   24.7681 N   0  0  0  0  0  0  0  0  0  0  0  0
   18.0942  -16.3467   24.8593 C   0  0  0  0  0  0  0  0  0  0  0  0
   19.7438  -15.1777   23.4215 C   0  0  1  0  0  0  0  0  0  0  0  0
   19.2730  -15.6509   22.2465 O   0  0  0  0  0  0  0  0  0  0  0  0
   18.3005  -14.8690   21.6484 C   0  0  1  0  0  0  0  0  0  0  0  0
   21.1880  -13.5843   24.0557 O   0  0  0  0  0  0  0  0  0  0  0  0
   20.4321  -14.1308   23.0817 C   0  0  0  0  0  0  0  0  0  0  0  0
   17.1640  -14.5236   22.4278 C   0  0  0  0  0  0  0  0  0  0  0  0
   16.2422  -13.5486   21.7495 C   0  0  0  0  0  0  0  0  0  0  0  0
   18.7033  -13.6136   20.9424 C   0  0  2  0  0  0  0  0  0  0  0  0
   20.1733  -13.5405   20.6534 C   0  0  0  0  0  0  0  0  0  0  0  0
   20.7841  -13.1816   22.0236 C   0  0  0  0  0  0  0  0  0  0  0  0
   17.9112  -12.5740   20.7609 C   0  0  2  0  0  0  0  0  0  0  0  0
   16.6741  -12.6304   21.1204 C   0  0  0  0  0  0  0  0  0  0  0  0
   18.2558  -11.5349   19.7261 F   0  0  0  0  0  0  0  0  0  0  0  0
   15.7437  -11.5258   20.6911 N   0  0  0  0  0  0  0  0  0  0  0  0
   14.4547  -11.4479   21.2919 C   0  0  0  0  0  0  0  0  0  0  0  0
   13.8827  -12.3797   21.9201 O   0  0  0  0  0  0  0  0  0  0  0  0
   13.7637  -10.1769   21.3318 C   0  0  0  0  0  0  0  0  0  0  0  0
  2  1  1  1
  2  3  1  0
  3  4  1  0
  4  5  1  0
  4  6  1  0
  6  7  1  6
  7  8  1  0
  2  9  1  0
  6 10  1  0
  9 10  1  0
  8 11  1  1
 11 12  1  0
  8 13  1  0
 13 14  1  1
 10 15  1  0
 14 15  1  0
 13 16  1  0
 12 17  1  0
 16 17  1  0
 16 18  1  6
 17 19  1  0
 19 20  1  0
 20 21  2  0
 20 22  1  0
M  END
$$$$
115
     RDKit          3D

 22 24  0  0  0  0  0  0  0  0999 V2000
   20.3470  -12.1501   19.8558 C   0  0  0  0  0  0  0  0  0  0  0  0
   19.8317  -12.8515   20.8502 C   0  0  2  0  0  0  0  0  0  0  0  0
   20.4231  -13.7341   21.6259 N   0  0  0  0  0  0  0  0  0  0  0  0
   18.3790  -13.2330   20.8422 C   0  0  2  0  0  0  0  0  0  0  0  0
   17.3228  -12.5814   20.2434 C   0  0  0  0  0  0  0  0  0  0  0  0
   19.5536  -14.4656   22.3517 C   0  0  1  0  0  0  0  0  0  0  0  0
   18.1728  -14.2570   21.7973 N   0  0  0  0  0  0  0  0  0  0  0  0
   16.9605  -14.7468   22.1897 C   0  0  0  0  0  0  0  0  0  0  0  0
   19.8805  -15.4718   23.3285 C   0  0  0  0  0  0  0  0  0  0  0  0
   16.9037  -15.6876   22.9920 O   0  0  0  0  0  0  0  0  0  0  0  0
   20.1827  -14.8963   24.6387 C   0  0  0  0  0  0  0  0  0  0  0  0
   19.9479  -15.5069   25.7753 C   0  0  0  0  0  0  0  0  0  0  0  0
   15.8395  -14.1339   21.6323 C   0  0  0  0  0  0  0  0  0  0  0  0
   20.7457  -13.5010   24.6499 C   0  0  0  0  0  0  0  0  0  0  0  0
   16.0038  -13.0517   20.6630 C   0  0  1  0  0  0  0  0  0  0  0  0
   16.2889  -16.8899   22.5038 C   0  0  0  0  0  0  0  0  0  0  0  0
   20.2146  -14.7976   26.9307 C   0  0  0  0  0  0  0  0  0  0  0  0
   20.9455  -13.5594   26.7375 C   0  0  0  0  0  0  0  0  0  0  0  0
   21.0880  -12.9315   25.6713 C   0  0  0  0  0  0  0  0  0  0  0  0
   14.8306  -12.2778   20.1277 C   0  0  0  0  0  0  0  0  0  0  0  0
   14.4570  -12.4123   18.9541 O   0  0  0  0  0  0  0  0  0  0  0  0
   14.2697  -11.2514   20.8491 N   0  0  0  0  0  0  0  0  0  0  0  0
  2  1  1  6
  2  3  1  0
  2  4  1  0
  4  5  1  1
  3  6  1  0
  4  7  1  0
  6  7  1  0
  7  8  1  0
  6  9  1  6
  8 10  1  0
  9 11  1  0
 11 12  1  0
  8 13  1  0
 11 14  1  0
  5 15  1  0
 13 15  1  0
 10 16  1  0
 12 17  1  0
 17 18  1  0
 14 19  1  0
 18 19  1  0
 15 20  1  1
 20 21  2  0
 20 22  1  0
M  END
$$$$
116
     RDKit          3D

 22 24  0  0  0  0  0  0  0  0999 V2000
   21.3798  -13.0882   26.4702 C   0  0  0  0  0  0  0  0  0  0  0  0
   20.7808  -13.7332   25.4153 C   0  0  2  0  0  0  0  0  0  0  0  0
   19.6965  -14.7349   25.6834 C   0  0  0  0  0  0  0  0  0  0  0  0
   19.2569  -15.4684   24.7681 N   0  0  0  0  0  0  0  0  0  0  0  0
   18.0942  -16.3467   24.8593 C   0  0  0  0  0  0  0  0  0  0  0  0
   19.7438  -15.1777   23.4215 C   0  0  1  0  0  0  0  0  0  0  0  0
   19.2730  -15.6509   22.2465 O   0  0  0  0  0  0  0  0  0  0  0  0
   18.3005  -14.8690   21.6484 C   0  0  1  0  0  0  0  0  0  0  0  0
   21.1880  -13.5843   24.0557 O   0  0  0  0  0  0  0  0  0  0  0  0
   20.4321  -14.1308   23.0817 C   0  0  0  0  0  0  0  0  0  0  0  0
   17.1640  -14.5236   22.4278 C   0  0  0  0  0  0  0  0  0  0  0  0
   16.2422  -13.5486   21.7495 C   0  0  0  0  0  0  0  0  0  0  0  0
   18.7033  -13.6136   20.9424 C   0  0  2  0  0  0  0  0  0  0  0  0
   20.1733  -13.5405   20.6534 C   0  0  0  0  0  0  0  0  0  0  0  0
   20.7841  -13.1816   22.0236 C   0  0  0  0  0  0  0  0  0  0  0  0
   17.9112  -12.5740   20.7609 C   0  0  2  0  0  0  0  0  0  0  0  0
   16.6741  -12.6304   21.1204 C   0  0  0  0  0  0  0  0  0  0  0  0
   18.2558  -11.5349   19.7261 F   0  0  0  0  0  0  0  0  0  0  0  0
   15.7437  -11.5258   20.6911 N   0  0  0  0  0  0  0  0  0  0  0  0
   14.4547  -11.4479   21.2919 C   0  0  0  0  0  0  0  0  0  0  0  0
   13.7564  -10.2365   21.0010 C   0  0  0  0  0  0  0  0  0  0  0  0
   13.7957  -12.4071   22.0468 N   0  0  0  0  0  0  0  0  0  0  0  0
  2  1  1  1
  2  3  1  0
  3  4  1  0
  4  5  1  0
  4  6  1  0
  6  7  1  6
  7  8  1  0
  2  9  1  0
  6 10  1  0
  9 10  1  0
  8 11  1  1
 11 12  1  0
  8 13  1  0
 13 14  1  1
 10 15  1  0
 14 15  1  0
 13 16  1  0
 12 17  1  0
 16 17  1  0
 16 18  1  6
 17 19  1  0
 19 20  1  0
 20 21  2  0
 20 22  1  0
M  END
$$$$
117
     RDKit          3D

 22 24  0  0  0  0  0  0  0  0999 V2000
   20.1096  -12.1790   19.7698 C   0  0  0  0  0  0  0  0  0  0  0  0
   18.8964  -11.7678   19.4847 C   0  0  0  0  0  0  0  0  0  0  0  0
   17.9814  -12.3717   20.5224 C   0  0  0  0  0  0  0  0  0  0  0  0
   20.5540  -13.0047   20.7245 C   0  0  0  0  0  0  0  0  0  0  0  0
   18.2987  -13.1701   21.5413 C   0  0  1  0  0  0  0  0  0  0  0  0
   16.3231  -12.1644   20.6503 C   0  0  0  0  0  0  0  0  0  0  0  0
   17.3735  -13.7092   22.4241 O   0  0  0  0  0  0  0  0  0  0  0  0
   19.6680  -13.5717   21.7286 C   0  0  0  0  0  0  0  0  0  0  0  0
   19.9866  -14.3940   22.7960 C   0  0  0  0  0  0  0  0  0  0  0  0
   19.2724  -14.4647   23.9158 N   0  0  0  0  0  0  0  0  0  0  0  0
   17.8282  -14.3486   23.5732 C   0  0  0  0  0  0  0  0  0  0  0  0
   19.7099  -14.5481   25.2257 C   0  0  0  0  0  0  0  0  0  0  0  0
   20.6678  -13.7001   25.6328 C   0  0  0  0  0  0  0  0  0  0  0  0
   19.2971  -15.6509   25.8360 O   0  0  0  0  0  0  0  0  0  0  0  0
   15.5397  -12.3613   21.3247 N   0  0  0  0  0  0  0  0  0  0  0  0
   14.1307  -12.0909   21.1562 C   0  0  1  0  0  0  0  0  0  0  0  0
   13.2858  -12.7648   21.8436 C   0  0  0  0  0  0  0  0  0  0  0  0
   12.0023  -12.2300   22.2996 C   0  0  1  0  0  0  0  0  0  0  0  0
   11.1257  -13.0297   23.1803 N   0  0  0  0  0  0  0  0  0  0  0  0
   12.1598  -10.8429   22.4862 C   0  0  0  0  0  0  0  0  0  0  0  0
   13.2086  -10.0968   21.8960 C   0  0  0  0  0  0  0  0  0  0  0  0
   14.2216  -10.7125   21.3831 C   0  0  0  0  0  0  0  0  0  0  0  0
  1  2  1  0
  2  3  1  0
  1  4  1  0
  3  5  1  0
  3  6  1  0
  5  7  1  6
  4  8  1  0
  5  8  1  0
  8  9  1  0
  9 10  1  0
  7 11  1  0
 10 11  1  0
 10 12  1  0
 12 13  1  0
 12 14  2  0
  6 15  2  3
 15 16  1  0
 16 17  1  1
 17 18  1  0
 18 19  1  1
 18 20  1  0
 20 21  1  0
 16 22  1  0
 21 22  1  0
M  END
$$$$
118
     RDKit          3D

 22 24  0  0  0  0  0  0  0  0999 V2000
   20.1181  -13.1118   20.9806 C   0  0  0  0  0  0  0  0  0  0  0  0
   18.9864  -13.5292   21.5966 C   0  0  1  0  0  0  0  0  0  0  0  0
   20.0110  -12.1472   19.8861 C   0  0  1  0  0  0  0  0  0  0  0  0
   21.1933  -11.7173   19.2054 F   0  0  0  0  0  0  0  0  0  0  0  0
   17.6669  -12.9225   21.0788 C   0  0  2  0  0  0  0  0  0  0  0  0
   18.7583  -14.5429   22.6653 C   0  0  1  0  0  0  0  0  0  0  0  0
   18.7786  -11.8085   19.4825 C   0  0  0  0  0  0  0  0  0  0  0  0
   17.5954  -14.9202   22.9359 N   0  0  0  0  0  0  0  0  0  0  0  0
   16.4262  -14.3024   22.6046 N   0  0  0  0  0  0  0  0  0  0  0  0
   19.7852  -15.3821   23.3817 C   0  0  0  0  0  0  0  0  0  0  0  0
   16.5431  -13.3914   21.6123 C   0  0  0  0  0  0  0  0  0  0  0  0
   17.7720  -12.1510   20.0062 C   0  0  0  0  0  0  0  0  0  0  0  0
   15.1603  -12.8692   21.1573 C   0  0  0  0  0  0  0  0  0  0  0  0
   20.0551  -14.8218   24.7101 C   0  0  1  0  0  0  0  0  0  0  0  0
   19.6277  -15.4532   25.7633 C   0  0  2  0  0  0  0  0  0  0  0  0
   21.4374  -14.1819   24.9425 C   0  0  0  0  0  0  0  0  0  0  0  0
   21.6685  -13.5063   26.1369 C   0  0  0  0  0  0  0  0  0  0  0  0
   18.3457  -16.2127   25.7507 C   0  0  0  0  0  0  0  0  0  0  0  0
   19.7515  -14.5700   27.0443 C   0  0  0  0  0  0  0  0  0  0  0  0
   20.8837  -13.7968   27.1872 C   0  0  0  0  0  0  0  0  0  0  0  0
   14.1776  -12.5502   21.9181 N   0  0  0  0  0  0  0  0  0  0  0  0
   14.9944  -12.6385   19.7782 O   0  0  0  0  0  0  0  0  0  0  0  0
  2  1  1  6
  1  3  1  0
  3  4  1  6
  2  5  1  0
  2  6  1  0
  3  7  1  0
  6  8  1  0
  8  9  1  0
  6 10  1  6
  5 11  1  0
  9 11  1  0
  5 12  1  6
  7 12  1  0
 11 13  1  0
 14 10  1  6
 14 15  1  0
 14 16  1  0
 16 17  1  0
 15 18  1  6
 15 19  1  0
 17 20  1  0
 19 20  1  0
 13 21  1  0
 13 22  2  0
M  END
$$$$
119
     RDKit          3D

 22 25  0  0  0  0  0  0  0  0999 V2000
   20.2497  -11.7989   19.2731 C   0  0  0  0  0  0  0  0  0  0  0  0
   20.1965  -12.4320   20.4769 C   0  0  0  0  0  0  0  0  0  0  0  0
   18.9673  -12.7485   21.0767 C   0  0  1  0  0  0  0  0  0  0  0  0
   18.9773  -11.4173   18.9521 N   0  0  0  0  0  0  0  0  0  0  0  0
   17.7264  -12.3631   20.5816 C   0  0  2  0  0  0  0  0  0  0  0  0
   18.6912  -13.8291   22.2049 C   0  0  2  0  0  0  0  0  0  0  0  0
   17.7923  -11.5845   19.4217 C   0  0  0  0  0  0  0  0  0  0  0  0
   16.4277  -12.6796   21.2695 C   0  0  2  0  0  0  0  0  0  0  0  0
   17.5182  -14.0662   22.7322 C   0  0  2  0  0  0  0  0  0  0  0  0
   17.5463  -15.0605   23.7799 N   0  0  0  0  0  0  0  0  0  0  0  0
   16.3908  -13.5264   22.2665 N   0  0  0  0  0  0  0  0  0  0  0  0
   15.1807  -12.1524   20.7632 C   0  0  0  0  0  0  0  0  0  0  0  0
   14.5872  -12.4449   19.7386 C   0  0  0  0  0  0  0  0  0  0  0  0
   13.3016  -11.9054   19.4569 N   0  0  0  0  0  0  0  0  0  0  0  0
   13.0317  -11.0200   20.5397 C   0  0  0  0  0  0  0  0  0  0  0  0
   18.6483  -15.5928   24.1608 C   0  0  2  0  0  0  0  0  0  0  0  0
   18.5597  -16.4502   25.2682 C   0  0  0  0  0  0  0  0  0  0  0  0
   19.9220  -14.6048   22.8573 S   0  0  0  0  0  0  0  0  0  0  0  0
   14.6015  -11.0991   21.6643 S   0  0  0  0  0  0  0  0  0  0  0  0
   18.9210  -15.9410   26.4384 C   0  0  0  0  0  0  0  0  0  0  0  0
   19.5853  -17.4299   24.9036 C   0  0  0  0  0  0  0  0  0  0  0  0
   17.1952  -17.1315   25.4213 C   0  0  0  0  0  0  0  0  0  0  0  0
  1  2  1  0
  3  2  1  6
  1  4  1  0
  3  5  1  0
  3  6  1  0
  4  7  1  0
  5  7  1  1
  5  8  1  0
  6  9  1  0
  9 10  1  6
  8 11  1  0
  9 11  1  0
  8 12  1  6
 12 13  1  0
 13 14  1  0
 14 15  1  0
 10 16  1  0
 16 17  1  1
  6 18  1  1
 16 18  1  0
 12 19  1  0
 15 19  1  0
 17 20  1  0
 17 21  1  0
 17 22  1  0
M  END
$$$$
12
     RDKit          3D

 13 15  0  0  0  0  0  0  0  0999 V2000
   12.6806  -10.8754   22.5297 C   0  0  2  0  0  0  0  0  0  0  0  0
   13.8971  -10.8172   21.9978 C   0  0  0  0  0  0  0  0  0  0  0  0
   14.3733  -11.8778   21.2155 C   0  0  0  0  0  0  0  0  0  0  0  0
   13.6981  -13.0483   21.1311 C   0  0  1  0  0  0  0  0  0  0  0  0
   12.4253  -13.2089   21.7788 C   0  0  0  0  0  0  0  0  0  0  0  0
   12.1279   -9.8676   23.3808 C   0  0  0  0  0  0  0  0  0  0  0  0
   11.5671  -10.1866   24.5747 C   0  0  0  0  0  0  0  0  0  0  0  0
   15.6701  -11.8775   20.3928 C   0  0  0  0  0  0  0  0  0  0  0  0
   14.3511  -13.8878   20.3272 N   0  0  0  0  0  0  0  0  0  0  0  0
   15.5643  -13.2418   19.8498 C   0  0  0  0  0  0  0  0  0  0  0  0
   12.0725  -12.1861   22.5964 C   0  0  1  0  0  0  0  0  0  0  0  0
   10.8269  -11.5272   24.6012 N   0  0  0  0  0  0  0  0  0  0  0  0
   11.1326  -12.4777   23.6476 C   0  0  0  0  0  0  0  0  0  0  0  0
  1  2  1  1
  2  3  1  0
  3  4  1  0
  4  5  1  6
  1  6  1  0
  6  7  1  0
  3  8  1  0
  4  9  1  0
  8 10  1  0
  9 10  1  0
  1 11  1  0
 11  5  1  1
  7 12  1  0
 11 13  1  0
 12 13  1  0
M  END
$$$$
120
     RDKit          3D

 22 24  0  0  0  0  0  0  0  0999 V2000
   20.1181  -13.1118   20.9806 C   0  0  0  0  0  0  0  0  0  0  0  0
   18.9864  -13.5292   21.5966 C   0  0  2  0  0  0  0  0  0  0  0  0
   17.6839  -12.9614   21.1373 C   0  0  2  0  0  0  0  0  0  0  0  0
   18.8510  -14.4305   22.7155 C   0  0  2  0  0  0  0  0  0  0  0  0
   19.9896  -14.9944   23.1784 C   0  0  0  0  0  0  0  0  0  0  0  0
   17.7747  -11.8553   20.2172 C   0  0  0  0  0  0  0  0  0  0  0  0
   20.1730  -12.1306   20.0014 C   0  0  1  0  0  0  0  0  0  0  0  0
   16.7533  -13.5541   21.7731 C   0  0  2  0  0  0  0  0  0  0  0  0
   17.4240  -14.5473   22.8162 C   0  0  0  0  0  0  0  0  0  0  0  0
   21.2700  -11.7351   19.3305 F   0  0  0  0  0  0  0  0  0  0  0  0
   15.3889  -13.8471   21.4930 N   0  0  0  0  0  0  0  0  0  0  0  0
   18.8920  -11.5670   19.5392 C   0  0  0  0  0  0  0  0  0  0  0  0
   14.6153  -12.6989   21.3478 C   0  0  0  0  0  0  0  0  0  0  0  0
   20.2594  -14.4940   24.6171 C   0  0  0  0  0  0  0  0  0  0  0  0
   19.6913  -15.1930   25.6844 C   0  0  2  0  0  0  0  0  0  0  0  0
   13.1548  -12.9299   21.4351 C   0  0  0  0  0  0  0  0  0  0  0  0
   18.7289  -16.2086   25.5140 N   0  0  0  0  0  0  0  0  0  0  0  0
   21.0346  -13.3804   24.8815 C   0  0  0  0  0  0  0  0  0  0  0  0
   19.9344  -14.4668   26.9396 C   0  0  0  0  0  0  0  0  0  0  0  0
   14.8748  -11.5297   21.0049 O   0  0  0  0  0  0  0  0  0  0  0  0
   21.3938  -13.0403   26.1469 C   0  0  0  0  0  0  0  0  0  0  0  0
   20.7954  -13.6560   27.2060 C   0  0  0  0  0  0  0  0  0  0  0  0
  2  1  1  1
  2  3  1  0
  2  4  1  0
  4  5  1  6
  3  6  1  1
  1  7  1  0
  3  8  1  0
  4  9  1  0
  8  9  1  0
  7 10  1  6
  8 11  1  6
  6 12  1  0
  7 12  1  0
 11 13  1  0
  5 14  1  0
 14 15  1  0
 13 16  1  0
 15 17  1  6
 14 18  1  0
 15 19  1  0
 13 20  2  0
 18 21  1  0
 19 22  1  0
 21 22  1  0
M  END
$$$$
121
     RDKit          3D

 22 25  0  0  0  0  0  0  0  0999 V2000
   20.3722  -12.8727   20.5736 C   0  0  0  0  0  0  0  0  0  0  0  0
   19.8961  -11.8796   19.7834 C   0  0  0  0  0  0  0  0  0  0  0  0
   19.4132  -13.5120   21.4506 C   0  0  2  0  0  0  0  0  0  0  0  0
   18.0378  -13.0137   21.4314 C   0  0  1  0  0  0  0  0  0  0  0  0
   17.8407  -12.0857   20.4950 C   0  0  0  0  0  0  0  0  0  0  0  0
   19.9007  -14.5402   22.4549 C   0  0  2  0  0  0  0  0  0  0  0  0
   18.6484  -11.4913   19.6817 N   0  0  0  0  0  0  0  0  0  0  0  0
   16.9654  -13.6764   22.2822 C   0  0  0  0  0  0  0  0  0  0  0  0
   16.2850  -11.9245   20.6311 C   0  0  0  0  0  0  0  0  0  0  0  0
   15.8604  -12.9077   21.6359 N   0  0  0  0  0  0  0  0  0  0  0  0
   14.4380  -13.0250   21.8997 C   0  0  0  0  0  0  0  0  0  0  0  0
   15.3825  -11.0977   19.9920 C   0  0  0  0  0  0  0  0  0  0  0  0
   19.8959  -15.7846   22.0778 C   0  0  0  0  0  0  0  0  0  0  0  0
   20.1913  -14.0730   23.7721 C   0  0  0  0  0  0  0  0  0  0  0  0
   20.4805  -14.8291   24.5993 C   0  0  2  0  0  0  0  0  0  0  0  0
   20.4806  -16.2997   24.4099 C   0  0  0  0  0  0  0  0  0  0  0  0
   14.0878  -11.4326   20.2881 C   0  0  0  0  0  0  0  0  0  0  0  0
   13.6583  -12.2020   21.1527 C   0  0  0  0  0  0  0  0  0  0  0  0
   20.7830  -14.5187   26.1764 C   0  0  0  0  0  0  0  0  0  0  0  0
   20.7960  -17.1663   25.4834 O   0  0  0  0  0  0  0  0  0  0  0  0
   20.1391  -16.8584   23.1763 C   0  0  0  0  0  0  0  0  0  0  0  0
   20.9188  -13.1311   26.4318 C   0  0  0  0  0  0  0  0  0  0  0  0
  1  2  1  0
  3  1  1  1
  3  4  1  0
  4  5  1  0
  3  6  1  0
  2  7  1  0
  5  7  1  0
  4  8  1  6
  5  9  1  0
  8 10  1  0
  9 10  1  0
 10 11  1  0
  9 12  1  0
  6 13  1  1
  6 14  1  0
 14 15  1  0
 15 16  1  0
 12 17  1  0
 11 18  1  0
 17 18  1  0
 15 19  1  1
 16 20  1  0
 13 21  1  0
 16 21  1  0
 19 22  1  0
M  END
$$$$
122
     RDKit          3D

 22 26  0  0  0  0  0  0  0  0999 V2000
   19.7530  -12.0841   19.7492 C   0  0  0  0  0  0  0  0  0  0  0  0
   18.4622  -12.0998   19.9560 C   0  0  0  0  0  0  0  0  0  0  0  0
   17.4315  -11.3794   19.3805 N   0  0  0  0  0  0  0  0  0  0  0  0
   17.8566  -13.0075   20.9578 C   0  0  2  0  0  0  0  0  0  0  0  0
   18.8644  -13.9420   21.4961 C   0  0  1  0  0  0  0  0  0  0  0  0
   16.2268  -11.6497   19.8942 C   0  0  2  0  0  0  0  0  0  0  0  0
   16.4990  -12.7074   20.9302 C   0  0  2  0  0  0  0  0  0  0  0  0
   20.0913  -13.8551   21.3986 C   0  0  2  0  0  0  0  0  0  0  0  0
   20.9579  -14.7277   22.1904 O   0  0  0  0  0  0  0  0  0  0  0  0
   15.4065  -13.0531   21.8393 C   0  0  0  0  0  0  0  0  0  0  0  0
   18.1741  -14.8923   22.6728 C   0  0  0  0  0  0  0  0  0  0  0  0
   20.7246  -12.8388   20.5634 C   0  0  0  0  0  0  0  0  0  0  0  0
   16.9796  -15.0819   22.8467 N   0  0  0  0  0  0  0  0  0  0  0  0
   14.1112  -12.7394   21.5170 C   0  0  0  0  0  0  0  0  0  0  0  0
   13.8682  -11.7722   20.4515 C   0  0  0  0  0  0  0  0  0  0  0  0
   14.9097  -11.2587   19.6706 C   0  0  0  0  0  0  0  0  0  0  0  0
   19.1636  -15.4388   23.5717 N   0  0  0  0  0  0  0  0  0  0  0  0
   20.4205  -15.1959   23.3289 C   0  0  0  0  0  0  0  0  0  0  0  0
   18.5374  -15.7487   24.7285 C   0  0  0  0  0  0  0  0  0  0  0  0
   21.4008  -15.7228   24.2696 C   0  0  0  0  0  0  0  0  0  0  0  0
   21.0127  -16.0029   25.5799 C   0  0  0  0  0  0  0  0  0  0  0  0
   19.5314  -15.7955   25.8828 C   0  0  0  0  0  0  0  0  0  0  0  0
  1  2  1  0
  2  3  1  0
  4  2  1  6
  4  5  1  0
  3  6  1  0
  4  7  1  0
  6  7  1  0
  5  8  1  0
  8  9  1  0
  7 10  1  1
  5 11  1  1
  1 12  1  0
  8 12  1  1
 11 13  2  0
 10 14  1  0
 14 15  1  0
  6 16  1  6
 15 16  1  0
 11 17  1  0
  9 18  1  0
 17 18  1  0
 17 19  1  0
 18 20  2  0
 20 21  1  0
 19 22  1  0
 21 22  1  0
M  END
$$$$
123
     RDKit          3D

 22 24  0  0  0  0  0  0  0  0999 V2000
   11.5607  -11.0747   23.5713 C   0  0  0  0  0  0  0  0  0  0  0  0
   12.5827  -10.5475   22.8494 C   0  0  0  0  0  0  0  0  0  0  0  0
   11.4613  -12.3810   23.3455 C   0  0  0  0  0  0  0  0  0  0  0  0
   13.0831  -11.3517   21.7975 C   0  0  2  0  0  0  0  0  0  0  0  0
   12.2350  -12.7534   22.2077 C   0  0  1  0  0  0  0  0  0  0  0  0
   13.9866  -11.2731   20.8754 C   0  0  0  0  0  0  0  0  0  0  0  0
   12.8862  -13.7331   21.4705 C   0  0  0  0  0  0  0  0  0  0  0  0
   13.8410  -13.5668   20.6721 C   0  0  0  0  0  0  0  0  0  0  0  0
   14.3249  -12.5068   20.3738 C   0  0  1  0  0  0  0  0  0  0  0  0
   15.3706  -12.3945   19.2197 C   0  0  0  0  0  0  0  0  0  0  0  0
   16.6820  -11.9471   19.6110 C   0  0  0  0  0  0  0  0  0  0  0  0
   17.1690  -12.5006   20.7065 C   0  0  1  0  0  0  0  0  0  0  0  0
   16.7585  -13.3340   21.5371 N   0  0  0  0  0  0  0  0  0  0  0  0
   18.5986  -12.1024   20.8765 C   0  0  2  0  0  0  0  0  0  0  0  0
   19.4442  -11.6223   19.9026 O   0  0  0  0  0  0  0  0  0  0  0  0
   17.7022  -14.2633   22.1151 C   0  0  0  0  0  0  0  0  0  0  0  0
   19.0303  -13.9421   22.3108 C   0  0  1  0  0  0  0  0  0  0  0  0
   19.9418  -14.7397   23.0611 C   0  0  0  0  0  0  0  0  0  0  0  0
   19.6423  -13.1046   21.4323 C   0  0  0  0  0  0  0  0  0  0  0  0
   19.8743  -14.5425   24.4624 C   0  0  0  0  0  0  0  0  0  0  0  0
   20.8184  -13.6912   25.1191 C   0  0  0  0  0  0  0  0  0  0  0  0
   20.8558  -13.4627   26.5151 C   0  0  0  0  0  0  0  0  0  0  0  0
  1  2  1  0
  1  3  1  0
  4  2  1  1
  5  3  1  1
  4  5  1  0
  4  6  1  0
  5  7  1  0
  7  8  1  0
  6  9  1  0
  8  9  1  0
  9 10  1  6
 10 11  1  0
 12 11  1  6
 12 13  1  0
 12 14  1  0
 14 15  1  6
 13 16  1  0
 16 17  1  0
 17 18  1  6
 14 19  1  0
 17 19  1  0
 18 20  1  0
 20 21  1  0
 21 22  1  0
M  END
$$$$
13
     RDKit          3D

 13 15  0  0  0  0  0  0  0  0999 V2000
   21.5673  -13.3220   26.0130 C   0  0  0  0  0  0  0  0  0  0  0  0
   22.0275  -13.9032   25.0212 C   0  0  0  0  0  0  0  0  0  0  0  0
   21.2005  -14.4480   23.9728 C   0  0  1  0  0  0  0  0  0  0  0  0
   21.5918  -14.9962   22.8141 O   0  0  0  0  0  0  0  0  0  0  0  0
   20.2443  -13.8929   26.4057 C   0  0  0  0  0  0  0  0  0  0  0  0
   19.4564  -14.5701   25.4442 C   0  0  2  0  0  0  0  0  0  0  0  0
   18.1678  -15.0269   25.7606 C   0  0  0  0  0  0  0  0  0  0  0  0
   20.0560  -14.8727   24.2562 C   0  0  1  0  0  0  0  0  0  0  0  0
   17.6894  -15.8702   24.7866 N   0  0  0  0  0  0  0  0  0  0  0  0
   19.0426  -15.5917   23.2618 C   0  0  2  0  0  0  0  0  0  0  0  0
   17.9892  -16.0171   23.5941 C   0  0  0  0  0  0  0  0  0  0  0  0
   19.6011  -16.0240   22.0460 C   0  0  0  0  0  0  0  0  0  0  0  0
   20.9228  -15.3454   21.7727 C   0  0  0  0  0  0  0  0  0  0  0  0
  1  2  1  0
  3  2  1  1
  3  4  1  0
  1  5  1  0
  6  5  1  1
  6  7  1  0
  8  3  1  6
  6  8  1  0
  7  9  1  0
  8 10  1  0
  9 11  1  0
 10 11  1  1
 10 12  1  0
  4 13  1  0
 12 13  1  0
M  END
$$$$
14
     RDKit          3D

 13 15  0  0  0  0  0  0  0  0999 V2000
   11.5607  -11.0747   23.5713 C   0  0  0  0  0  0  0  0  0  0  0  0
   12.5827  -10.5475   22.8494 C   0  0  0  0  0  0  0  0  0  0  0  0
   12.9524  -11.4266   21.8792 C   0  0  2  0  0  0  0  0  0  0  0  0
   12.4981  -12.6972   21.9190 C   0  0  1  0  0  0  0  0  0  0  0  0
   14.0275  -11.0305   20.8967 C   0  0  0  0  0  0  0  0  0  0  0  0
   13.1182  -13.5693   20.8793 C   0  0  0  0  0  0  0  0  0  0  0  0
   11.7488  -13.0740   22.8179 N   0  0  0  0  0  0  0  0  0  0  0  0
   12.7055  -14.9095   20.8196 C   0  0  0  0  0  0  0  0  0  0  0  0
   11.1809  -12.3117   23.6948 C   0  0  0  0  0  0  0  0  0  0  0  0
   14.1960  -13.1022   20.1419 C   0  0  2  0  0  0  0  0  0  0  0  0
   14.5101  -11.8636   20.0697 C   0  0  0  0  0  0  0  0  0  0  0  0
   13.4927  -15.5573   19.7274 C   0  0  0  0  0  0  0  0  0  0  0  0
   14.4741  -14.3166   19.2446 C   0  0  0  0  0  0  0  0  0  0  0  0
  1  2  1  0
  3  2  1  1
  3  4  1  0
  3  5  1  0
  4  6  1  0
  4  7  1  1
  6  8  2  0
  1  9  1  0
  7  9  1  0
  6 10  1  0
  5 11  1  0
 10 11  1  6
  8 12  1  0
 10 13  1  0
 12 13  1  0
M  END
$$$$
15
     RDKit          3D

 13 15  0  0  0  0  0  0  0  0999 V2000
   19.7530  -12.0841   19.7492 C   0  0  0  0  0  0  0  0  0  0  0  0
   18.4622  -12.0998   19.9560 C   0  0  0  0  0  0  0  0  0  0  0  0
   17.4315  -11.3794   19.3805 N   0  0  0  0  0  0  0  0  0  0  0  0
   17.8566  -13.0075   20.9578 C   0  0  2  0  0  0  0  0  0  0  0  0
   18.8644  -13.9420   21.4961 C   0  0  0  0  0  0  0  0  0  0  0  0
   16.2268  -11.6497   19.8942 C   0  0  2  0  0  0  0  0  0  0  0  0
   16.4838  -12.7241   20.9585 C   0  0  2  0  0  0  0  0  0  0  0  0
   15.0230  -11.2362   19.4249 N   0  0  0  0  0  0  0  0  0  0  0  0
   15.5383  -13.3226   21.9248 C   0  0  0  0  0  0  0  0  0  0  0  0
   14.2197  -12.7808   21.7005 C   0  0  0  0  0  0  0  0  0  0  0  0
   13.9084  -11.9102   20.7120 C   0  0  0  0  0  0  0  0  0  0  0  0
   20.5656  -12.7546   20.4244 C   0  0  0  0  0  0  0  0  0  0  0  0
   20.1295  -13.7674   21.2969 C   0  0  0  0  0  0  0  0  0  0  0  0
  1  2  1  0
  2  3  1  0
  2  4  1  0
  4  5  1  6
  6  3  1  6
  4  7  1  0
  6  7  1  0
  6  8  1  0
  7  9  1  1
  9 10  1  0
  8 11  1  0
 10 11  1  0
  1 12  1  0
  5 13  1  0
 12 13  1  0
M  END
$$$$
16
     RDKit          3D

 13 15  0  0  0  0  0  0  0  0999 V2000
   19.7530  -12.0841   19.7492 C   0  0  0  0  0  0  0  0  0  0  0  0
   18.4622  -12.0998   19.9560 C   0  0  0  0  0  0  0  0  0  0  0  0
   17.4315  -11.3794   19.3805 N   0  0  0  0  0  0  0  0  0  0  0  0
   17.8566  -13.0075   20.9578 C   0  0  2  0  0  0  0  0  0  0  0  0
   18.8644  -13.9420   21.4961 C   0  0  0  0  0  0  0  0  0  0  0  0
   16.2268  -11.6497   19.8942 C   0  0  2  0  0  0  0  0  0  0  0  0
   16.4838  -12.7241   20.9585 C   0  0  2  0  0  0  0  0  0  0  0  0
   15.0230  -11.2362   19.4249 N   0  0  0  0  0  0  0  0  0  0  0  0
   15.5383  -13.3226   21.9248 C   0  0  0  0  0  0  0  0  0  0  0  0
   14.2197  -12.7808   21.7005 N   0  0  0  0  0  0  0  0  0  0  0  0
   13.9722  -11.7631   20.3875 C   0  0  0  0  0  0  0  0  0  0  0  0
   20.5622  -12.7670   20.4372 C   0  0  0  0  0  0  0  0  0  0  0  0
   20.0197  -13.7755   21.3723 C   0  0  0  0  0  0  0  0  0  0  0  0
  1  2  1  0
  2  3  1  0
  2  4  1  0
  4  5  1  6
  6  3  1  6
  4  7  1  0
  6  7  1  0
  6  8  1  0
  7  9  1  1
  9 10  1  0
  8 11  1  0
 10 11  1  0
  1 12  1  0
  5 13  1  0
 12 13  1  0
M  END
$$$$
17
     RDKit          3D

 14 16  0  0  0  0  0  0  0  0999 V2000
   11.5607  -11.0747   23.5713 C   0  0  0  0  0  0  0  0  0  0  0  0
   12.5827  -10.5475   22.8494 C   0  0  0  0  0  0  0  0  0  0  0  0
   12.9524  -11.4266   21.8792 C   0  0  2  0  0  0  0  0  0  0  0  0
   12.4981  -12.6972   21.9190 C   0  0  1  0  0  0  0  0  0  0  0  0
   14.0275  -11.0305   20.8967 C   0  0  0  0  0  0  0  0  0  0  0  0
   13.1182  -13.5693   20.8793 C   0  0  0  0  0  0  0  0  0  0  0  0
   11.7488  -13.0740   22.8179 N   0  0  0  0  0  0  0  0  0  0  0  0
   12.7055  -14.9095   20.8196 C   0  0  0  0  0  0  0  0  0  0  0  0
   11.1809  -12.3117   23.6948 C   0  0  0  0  0  0  0  0  0  0  0  0
   14.1960  -13.1022   20.1419 C   0  0  1  0  0  0  0  0  0  0  0  0
   14.7276  -14.1732   19.2720 C   0  0  0  0  0  0  0  0  0  0  0  0
   13.4358  -15.7651   20.2037 N   0  0  0  0  0  0  0  0  0  0  0  0
   14.5530  -11.8531   20.0728 C   0  0  0  0  0  0  0  0  0  0  0  0
   14.3686  -15.4411   19.3431 C   0  0  0  0  0  0  0  0  0  0  0  0
  1  2  1  0
  3  2  1  1
  3  4  1  0
  3  5  1  0
  4  6  1  0
  4  7  1  1
  6  8  2  0
  1  9  1  0
  7  9  1  0
  6 10  1  0
 10 11  1  6
  8 12  1  0
  5 13  1  0
 10 13  1  0
 11 14  1  0
 12 14  2  0
M  END
$$$$
18
     RDKit          3D

 14 16  0  0  0  0  0  0  0  0999 V2000
   11.5607  -11.0747   23.5713 C   0  0  0  0  0  0  0  0  0  0  0  0
   12.5827  -10.5475   22.8494 C   0  0  0  0  0  0  0  0  0  0  0  0
   12.9524  -11.4266   21.8792 C   0  0  2  0  0  0  0  0  0  0  0  0
   12.4981  -12.6972   21.9190 C   0  0  1  0  0  0  0  0  0  0  0  0
   14.0275  -11.0305   20.8967 C   0  0  0  0  0  0  0  0  0  0  0  0
   13.1182  -13.5693   20.8793 C   0  0  0  0  0  0  0  0  0  0  0  0
   11.7488  -13.0740   22.8179 N   0  0  0  0  0  0  0  0  0  0  0  0
   12.7055  -14.9095   20.8196 C   0  0  0  0  0  0  0  0  0  0  0  0
   11.1809  -12.3117   23.6948 C   0  0  0  0  0  0  0  0  0  0  0  0
   14.1960  -13.1022   20.1419 C   0  0  0  0  0  0  0  0  0  0  0  0
   14.7276  -14.1732   19.2720 C   0  0  0  0  0  0  0  0  0  0  0  0
   13.4358  -15.7651   20.2037 N   0  0  0  0  0  0  0  0  0  0  0  0
   14.4229  -15.4422   19.3338 C   0  0  0  0  0  0  0  0  0  0  0  0
   14.5327  -11.8490   20.1880 N   0  0  0  0  0  0  0  0  0  0  0  0
  1  2  1  0
  3  2  1  1
  3  4  1  0
  3  5  1  0
  4  6  1  0
  4  7  1  1
  6  8  2  0
  1  9  1  0
  7  9  1  0
  6 10  1  0
 10 11  1  0
  8 12  1  0
 11 13  1  0
 12 13  1  0
  5 14  1  0
 10 14  2  0
M  END
$$$$
19
     RDKit          3D

 14 16  0  0  0  0  0  0  0  0999 V2000
   11.5607  -11.0747   23.5713 C   0  0  0  0  0  0  0  0  0  0  0  0
   12.5827  -10.5475   22.8494 C   0  0  0  0  0  0  0  0  0  0  0  0
   12.9524  -11.4266   21.8792 C   0  0  2  0  0  0  0  0  0  0  0  0
   12.4981  -12.6972   21.9190 C   0  0  1  0  0  0  0  0  0  0  0  0
   14.0275  -11.0305   20.8967 C   0  0  0  0  0  0  0  0  0  0  0  0
   13.1182  -13.5693   20.8793 C   0  0  0  0  0  0  0  0  0  0  0  0
   11.7488  -13.0740   22.8179 N   0  0  0  0  0  0  0  0  0  0  0  0
   12.7055  -14.9095   20.8196 C   0  0  0  0  0  0  0  0  0  0  0  0
   11.1809  -12.3117   23.6948 C   0  0  0  0  0  0  0  0  0  0  0  0
   14.1960  -13.1022   20.1419 C   0  0  1  0  0  0  0  0  0  0  0  0
   14.7276  -14.1732   19.2720 C   0  0  0  0  0  0  0  0  0  0  0  0
   13.4358  -15.7651   20.2037 N   0  0  0  0  0  0  0  0  0  0  0  0
   14.4059  -15.3841   19.4040 C   0  0  0  0  0  0  0  0  0  0  0  0
   14.5233  -11.8421   20.2035 N   0  0  0  0  0  0  0  0  0  0  0  0
  1  2  1  0
  3  2  1  1
  3  4  1  0
  3  5  1  0
  4  6  1  0
  4  7  1  1
  6  8  2  0
  1  9  1  0
  7  9  1  0
  6 10  1  0
 10 11  1  6
  8 12  1  0
 11 13  1  0
 12 13  2  0
  5 14  1  0
 10 14  1  0
M  END
$$$$
2
     RDKit          3D

 10 11  0  0  0  0  0  0  0  0999 V2000
   11.5607  -11.0747   23.5713 C   0  0  0  0  0  0  0  0  0  0  0  0
   12.5827  -10.5475   22.8494 C   0  0  0  0  0  0  0  0  0  0  0  0
   13.2179  -11.2634   21.8820 C   0  0  2  0  0  0  0  0  0  0  0  0
   12.9700  -12.6489   21.8391 C   0  0  1  0  0  0  0  0  0  0  0  0
   14.3139  -10.7534   20.9823 C   0  0  0  0  0  0  0  0  0  0  0  0
   11.2349  -12.4145   23.5306 C   0  0  0  0  0  0  0  0  0  0  0  0
   11.9255  -13.1813   22.5514 C   0  0  0  0  0  0  0  0  0  0  0  0
   13.6638  -13.4197   20.8114 C   0  0  0  0  0  0  0  0  0  0  0  0
   14.5703  -12.8996   20.0022 N   0  0  0  0  0  0  0  0  0  0  0  0
   14.9744  -11.6612   20.1761 C   0  0  0  0  0  0  0  0  0  0  0  0
  1  2  1  0
  3  2  1  1
  3  4  1  0
  3  5  1  0
  1  6  1  0
  4  7  1  6
  6  7  1  0
  4  8  1  0
  8  9  1  0
  5 10  1  0
  9 10  1  0
M  END
$$$$
20
     RDKit          3D

 14 15  0  0  0  0  0  0  0  0999 V2000
   19.7530  -12.0841   19.7492 C   0  0  0  0  0  0  0  0  0  0  0  0
   18.4622  -12.0998   19.9560 C   0  0  0  0  0  0  0  0  0  0  0  0
   17.4315  -11.3794   19.3805 N   0  0  0  0  0  0  0  0  0  0  0  0
   17.8566  -13.0075   20.9578 C   0  0  2  0  0  0  0  0  0  0  0  0
   18.8644  -13.9420   21.4961 C   0  0  0  0  0  0  0  0  0  0  0  0
   16.4938  -13.0368   21.3055 C   0  0  0  0  0  0  0  0  0  0  0  0
   15.9891  -13.8658   22.3091 O   0  0  0  0  0  0  0  0  0  0  0  0
   15.5039  -12.2031   20.6849 C   0  0  0  0  0  0  0  0  0  0  0  0
   16.1011  -11.4082   19.6423 C   0  0  0  0  0  0  0  0  0  0  0  0
   20.6381  -12.8506   20.4217 C   0  0  0  0  0  0  0  0  0  0  0  0
   20.0704  -13.8206   21.3559 C   0  0  0  0  0  0  0  0  0  0  0  0
   14.0377  -12.1452   21.0039 C   0  0  0  0  0  0  0  0  0  0  0  0
   13.5907  -13.1046   21.6001 N   0  0  0  0  0  0  0  0  0  0  0  0
   13.3555  -11.0785   20.7778 N   0  0  0  0  0  0  0  0  0  0  0  0
  1  2  1  0
  2  3  1  0
  2  4  1  0
  4  5  1  6
  4  6  1  0
  6  7  1  0
  6  8  1  0
  3  9  1  0
  8  9  1  0
  1 10  1  0
  5 11  1  0
 10 11  1  0
  8 12  1  0
 12 13  2  0
 12 14  1  0
M  END
$$$$
21
     RDKit          3D

 14 16  0  0  0  0  0  0  0  0999 V2000
   11.5607  -11.0747   23.5713 C   0  0  0  0  0  0  0  0  0  0  0  0
   12.5827  -10.5475   22.8494 C   0  0  0  0  0  0  0  0  0  0  0  0
   12.9524  -11.4266   21.8792 C   0  0  2  0  0  0  0  0  0  0  0  0
   12.4981  -12.6972   21.9190 C   0  0  1  0  0  0  0  0  0  0  0  0
   14.0275  -11.0305   20.8967 C   0  0  0  0  0  0  0  0  0  0  0  0
   13.1182  -13.5693   20.8793 C   0  0  0  0  0  0  0  0  0  0  0  0
   11.7488  -13.0740   22.8179 N   0  0  0  0  0  0  0  0  0  0  0  0
   12.7055  -14.9095   20.8196 C   0  0  0  0  0  0  0  0  0  0  0  0
   11.1809  -12.3117   23.6948 C   0  0  0  0  0  0  0  0  0  0  0  0
   14.1960  -13.1022   20.1419 C   0  0  1  0  0  0  0  0  0  0  0  0
   14.7276  -14.1732   19.2720 C   0  0  0  0  0  0  0  0  0  0  0  0
   13.4358  -15.7651   20.2037 N   0  0  0  0  0  0  0  0  0  0  0  0
   14.4229  -15.4422   19.3338 C   0  0  0  0  0  0  0  0  0  0  0  0
   14.5981  -11.8249   20.0218 C   0  0  0  0  0  0  0  0  0  0  0  0
  1  2  1  0
  3  2  1  1
  3  4  1  0
  3  5  1  0
  4  6  1  0
  4  7  1  1
  6  8  2  0
  1  9  1  0
  7  9  1  0
  6 10  1  0
 10 11  1  6
  8 12  1  0
 11 13  1  0
 12 13  1  0
  5 14  1  0
 10 14  1  0
M  END
$$$$
22
     RDKit          3D

 14 15  0  0  0  0  0  0  0  0999 V2000
   20.8563  -13.5379   26.2843 C   0  0  2  0  0  0  0  0  0  0  0  0
   20.6748  -13.5953   24.9638 C   0  0  0  0  0  0  0  0  0  0  0  0
   21.6928  -12.6948   26.8170 O   0  0  0  0  0  0  0  0  0  0  0  0
   19.9004  -14.7241   24.3837 C   0  0  1  0  0  0  0  0  0  0  0  0
   20.3193  -14.6111   27.1069 C   0  0  0  0  0  0  0  0  0  0  0  0
   19.6100  -15.6515   26.4142 C   0  0  0  0  0  0  0  0  0  0  0  0
   19.3387  -15.5879   25.1582 C   0  0  2  0  0  0  0  0  0  0  0  0
   18.4318  -16.8193   24.3935 S   0  0  0  0  0  0  0  0  0  0  0  0
   19.6035  -14.5960   22.7636 C   0  0  1  0  0  0  0  0  0  0  0  0
   19.0619  -15.7222   22.3775 C   0  0  0  0  0  0  0  0  0  0  0  0
   18.3966  -16.6907   22.9373 C   0  0  0  0  0  0  0  0  0  0  0  0
   19.8324  -13.4294   22.0754 O   0  0  0  0  0  0  0  0  0  0  0  0
   20.0825  -13.5763   20.8151 C   0  0  0  0  0  0  0  0  0  0  0  0
   19.9519  -12.2360   20.0980 C   0  0  0  0  0  0  0  0  0  0  0  0
  1  2  1  0
  1  3  1  6
  4  2  1  1
  1  5  1  0
  5  6  1  0
  4  7  1  0
  7  6  1  6
  7  8  1  0
  4  9  1  0
  9 10  1  0
  8 11  1  0
 10 11  1  0
  9 12  1  1
 12 13  1  0
 13 14  1  0
M  END
$$$$
23
     RDKit          3D

 14 16  0  0  0  0  0  0  0  0999 V2000
   11.5607  -11.0747   23.5713 C   0  0  0  0  0  0  0  0  0  0  0  0
   12.5827  -10.5475   22.8494 C   0  0  0  0  0  0  0  0  0  0  0  0
   11.4613  -12.3810   23.3455 C   0  0  0  0  0  0  0  0  0  0  0  0
   13.0831  -11.3517   21.7975 C   0  0  0  0  0  0  0  0  0  0  0  0
   12.2350  -12.7534   22.2077 C   0  0  1  0  0  0  0  0  0  0  0  0
   13.9587  -11.2159   20.7729 C   0  0  0  0  0  0  0  0  0  0  0  0
   12.5491  -13.9185   21.4283 C   0  0  0  0  0  0  0  0  0  0  0  0
   13.5045  -13.6817   20.2998 C   0  0  0  0  0  0  0  0  0  0  0  0
   14.2254  -12.4776   20.0949 C   0  0  1  0  0  0  0  0  0  0  0  0
   15.0448  -12.4203   18.8476 C   0  0  0  0  0  0  0  0  0  0  0  0
   16.4077  -12.1247   19.0761 N   0  0  0  0  0  0  0  0  0  0  0  0
   14.6202  -12.2474   17.6010 N   0  0  0  0  0  0  0  0  0  0  0  0
   16.9258  -11.8096   17.8138 N   0  0  0  0  0  0  0  0  0  0  0  0
   15.7264  -11.9172   16.9655 C   0  0  0  0  0  0  0  0  0  0  0  0
  1  2  1  0
  1  3  1  0
  2  4  1  0
  5  3  1  1
  4  5  1  0
  4  6  1  0
  5  7  1  0
  7  8  1  0
  6  9  1  0
  8  9  1  0
  9 10  1  6
 10 11  1  0
 10 12  2  0
 11 13  1  0
 12 14  1  0
 13 14  2  0
M  END
$$$$
24
     RDKit          3D

 15 16  0  0  0  0  0  0  0  0999 V2000
   21.3798  -13.0882   26.4702 C   0  0  0  0  0  0  0  0  0  0  0  0
   20.7808  -13.7332   25.4153 C   0  0  1  0  0  0  0  0  0  0  0  0
   21.0612  -13.5431   24.0597 O   0  0  0  0  0  0  0  0  0  0  0  0
   19.9095  -14.9001   25.6229 C   0  0  0  0  0  0  0  0  0  0  0  0
   20.4300  -14.3503   23.2797 C   0  0  2  0  0  0  0  0  0  0  0  0
   20.0773  -13.6830   22.0639 N   0  0  0  0  0  0  0  0  0  0  0  0
   19.6837  -15.4917   23.6121 C   0  0  1  0  0  0  0  0  0  0  0  0
   19.4143  -15.5524   24.7118 N   0  0  0  0  0  0  0  0  0  0  0  0
   18.7341  -15.8918   22.4131 C   0  0  0  0  0  0  0  0  0  0  0  0
   18.7141  -15.2268   21.2758 C   0  0  0  0  0  0  0  0  0  0  0  0
   19.3480  -14.0562   21.1578 C   0  0  0  0  0  0  0  0  0  0  0  0
   19.2267  -13.2434   20.0368 O   0  0  0  0  0  0  0  0  0  0  0  0
   18.7857  -16.8608   25.1250 C   0  0  0  0  0  0  0  0  0  0  0  0
   19.4266  -11.8169   20.1401 C   0  0  0  0  0  0  0  0  0  0  0  0
   17.5661  -16.9579   24.8274 O   0  0  0  0  0  0  0  0  0  0  0  0
  2  1  1  1
  2  3  1  0
  2  4  1  0
  3  5  1  0
  5  6  1  1
  5  7  1  0
  4  8  1  0
  7  8  1  0
  7  9  1  6
  9 10  1  0
  6 11  1  0
 10 11  1  0
 11 12  1  0
  8 13  1  0
 12 14  1  0
 13 15  2  0
M  END
$$$$
25
     RDKit          3D

 16 17  0  0  0  0  0  0  0  0999 V2000
   21.1463  -13.1379   26.4242 C   0  0  0  0  0  0  0  0  0  0  0  0
   20.6206  -14.0731   27.1157 C   0  0  0  0  0  0  0  0  0  0  0  0
   20.2341  -15.0129   26.1640 C   0  0  2  0  0  0  0  0  0  0  0  0
   20.0062  -14.6024   25.0713 C   0  0  2  0  0  0  0  0  0  0  0  0
   19.2920  -15.2973   23.9569 C   0  0  2  0  0  0  0  0  0  0  0  0
   20.6220  -13.3453   24.6130 S   0  0  0  0  0  0  0  0  0  0  0  0
   19.0884  -16.1383   26.3526 C   0  0  0  0  0  0  0  0  0  0  0  0
   19.0955  -14.9434   22.6140 N   0  0  0  0  0  0  0  0  0  0  0  0
   19.2167  -13.7822   22.1196 C   0  0  0  0  0  0  0  0  0  0  0  0
   19.2243  -15.9848   21.6487 C   0  0  0  0  0  0  0  0  0  0  0  0
   18.5529  -16.5221   24.5841 C   0  0  0  0  0  0  0  0  0  0  0  0
   19.7207  -13.5961   20.7999 C   0  0  0  0  0  0  0  0  0  0  0  0
   20.0108  -12.2933   20.2614 C   0  0  0  0  0  0  0  0  0  0  0  0
   20.8866  -12.2443   19.2805 F   0  0  0  0  0  0  0  0  0  0  0  0
   18.7760  -11.6772   20.0096 F   0  0  0  0  0  0  0  0  0  0  0  0
   20.7066  -11.5055   21.2120 F   0  0  0  0  0  0  0  0  0  0  0  0
  1  2  1  0
  3  2  1  1
  3  4  1  0
  4  5  1  0
  1  6  1  0
  4  6  1  6
  3  7  1  0
  5  8  1  1
  8  9  1  0
  8 10  1  0
  5 11  1  0
  7 11  1  0
  9 12  1  0
 12 13  1  0
 13 14  1  0
 13 15  1  0
 13 16  1  0
M  END
$$$$
26
     RDKit          3D

 16 18  0  0  0  0  0  0  0  0999 V2000
   20.3470  -12.1501   19.8558 C   0  0  0  0  0  0  0  0  0  0  0  0
   19.8317  -12.8515   20.8502 C   0  0  2  0  0  0  0  0  0  0  0  0
   20.4231  -13.7341   21.6259 N   0  0  0  0  0  0  0  0  0  0  0  0
   18.3790  -13.2330   20.8422 C   0  0  2  0  0  0  0  0  0  0  0  0
   19.5619  -14.3285   22.4854 N   0  0  0  0  0  0  0  0  0  0  0  0
   17.3294  -12.5449   20.1773 C   0  0  0  0  0  0  0  0  0  0  0  0
   18.2565  -14.0336   21.9943 N   0  0  0  0  0  0  0  0  0  0  0  0
   17.1011  -14.6713   22.6113 C   0  0  0  0  0  0  0  0  0  0  0  0
   17.2222  -15.5069   23.5158 N   0  0  0  0  0  0  0  0  0  0  0  0
   17.4360  -16.8497   23.3583 C   0  0  0  0  0  0  0  0  0  0  0  0
   17.3605  -15.1279   24.8910 C   0  0  0  0  0  0  0  0  0  0  0  0
   17.8841  -11.6395   19.2115 C   0  0  0  0  0  0  0  0  0  0  0  0
   19.3106  -11.4376   19.0420 C   0  0  0  0  0  0  0  0  0  0  0  0
   15.9945  -14.3423   22.0170 O   0  0  0  0  0  0  0  0  0  0  0  0
   17.6671  -16.3335   25.6024 C   0  0  0  0  0  0  0  0  0  0  0  0
   17.8407  -17.4558   24.5883 C   0  0  0  0  0  0  0  0  0  0  0  0
  2  1  1  6
  2  3  1  0
  2  4  1  0
  3  5  1  0
  4  6  1  1
  4  7  1  0
  5  7  1  0
  7  8  1  0
  8  9  1  0
  9 10  1  0
  9 11  1  0
  6 12  1  0
  1 13  1  0
 12 13  1  0
  8 14  2  0
 11 15  1  0
 10 16  1  0
 15 16  1  0
M  END
$$$$
27
     RDKit          3D

 16 18  0  0  0  0  0  0  0  0999 V2000
   11.5607  -11.0747   23.5713 C   0  0  0  0  0  0  0  0  0  0  0  0
   12.5827  -10.5475   22.8494 C   0  0  0  0  0  0  0  0  0  0  0  0
   11.4613  -12.3810   23.3455 C   0  0  0  0  0  0  0  0  0  0  0  0
   13.0831  -11.3517   21.7975 C   0  0  2  0  0  0  0  0  0  0  0  0
   12.2350  -12.7534   22.2077 C   0  0  1  0  0  0  0  0  0  0  0  0
   13.9866  -11.2731   20.8754 C   0  0  0  0  0  0  0  0  0  0  0  0
   12.8862  -13.7331   21.4705 C   0  0  0  0  0  0  0  0  0  0  0  0
   13.8410  -13.5668   20.6721 C   0  0  0  0  0  0  0  0  0  0  0  0
   14.3249  -12.5068   20.3738 C   0  0  2  0  0  0  0  0  0  0  0  0
   15.5171  -12.5260   19.5437 C   0  0  0  0  0  0  0  0  0  0  0  0
   16.8412  -12.2917   20.2143 C   0  0  1  0  0  0  0  0  0  0  0  0
   17.0986  -12.7488   21.4440 C   0  0  0  0  0  0  0  0  0  0  0  0
   17.9370  -11.9830   19.3522 O   0  0  0  0  0  0  0  0  0  0  0  0
   19.1261  -12.1193   20.2288 C   0  0  1  0  0  0  0  0  0  0  0  0
   18.6979  -12.6459   21.4904 C   0  0  0  0  0  0  0  0  0  0  0  0
   20.3226  -11.8964   19.6755 C   0  0  0  0  0  0  0  0  0  0  0  0
  1  2  1  0
  1  3  1  0
  4  2  1  1
  5  3  1  1
  4  5  1  0
  4  6  1  0
  5  7  1  0
  7  8  1  0
  6  9  1  0
  8  9  1  0
  9 10  1  1
 11 10  1  6
 11 12  1  0
 11 13  1  0
 13 14  1  0
 12 15  1  0
 14 15  1  0
 14 16  1  6
M  END
$$$$
28
     RDKit          3D

 16 18  0  0  0  0  0  0  0  0999 V2000
   11.5607  -11.0747   23.5713 C   0  0  0  0  0  0  0  0  0  0  0  0
   12.5827  -10.5475   22.8494 C   0  0  0  0  0  0  0  0  0  0  0  0
   12.9524  -11.4266   21.8792 C   0  0  2  0  0  0  0  0  0  0  0  0
   12.4981  -12.6972   21.9190 C   0  0  1  0  0  0  0  0  0  0  0  0
   14.0275  -11.0305   20.8967 C   0  0  0  0  0  0  0  0  0  0  0  0
   13.1182  -13.5693   20.8793 C   0  0  0  0  0  0  0  0  0  0  0  0
   11.7488  -13.0740   22.8179 N   0  0  0  0  0  0  0  0  0  0  0  0
   12.7055  -14.9095   20.8196 C   0  0  0  0  0  0  0  0  0  0  0  0
   11.1809  -12.3117   23.6948 C   0  0  0  0  0  0  0  0  0  0  0  0
   14.1960  -13.1022   20.1419 C   0  0  0  0  0  0  0  0  0  0  0  0
   14.5101  -11.8636   20.0697 C   0  0  0  0  0  0  0  0  0  0  0  0
   13.4927  -15.5573   19.7274 C   0  0  2  0  0  0  0  0  0  0  0  0
   13.5073  -16.7652   19.2238 C   0  0  0  0  0  0  0  0  0  0  0  0
   14.6073  -14.4243   19.5952 N   0  0  0  0  0  0  0  0  0  0  0  0
   14.2111  -17.6753   19.7151 O   0  0  0  0  0  0  0  0  0  0  0  0
   12.9649  -16.8832   18.0437 O   0  0  0  0  0  0  0  0  0  0  0  0
  1  2  1  0
  3  2  1  1
  3  4  1  0
  3  5  1  0
  4  6  1  0
  4  7  1  1
  6  8  2  0
  1  9  1  0
  7  9  1  0
  6 10  1  0
  5 11  1  0
 10 11  1  0
  8 12  1  0
 12 13  1  1
 10 14  1  0
 12 14  1  0
 13 15  2  0
 13 16  1  0
M  END
$$$$
29
     RDKit          3D

 17 18  0  0  0  0  0  0  0  0999 V2000
   17.8542  -15.6383   25.8905 C   0  0  0  0  0  0  0  0  0  0  0  0
   17.6200  -15.7110   24.6384 N   0  0  0  0  0  0  0  0  0  0  0  0
   19.1624  -15.1228   26.1728 N   0  0  0  0  0  0  0  0  0  0  0  0
   18.7242  -15.2269   23.9129 C   0  0  1  0  0  0  0  0  0  0  0  0
   19.9122  -14.8594   27.3256 C   0  0  0  0  0  0  0  0  0  0  0  0
   18.8396  -15.0805   22.4815 C   0  0  1  0  0  0  0  0  0  0  0  0
   19.6519  -14.8233   24.8067 C   0  0  0  0  0  0  0  0  0  0  0  0
   17.7985  -15.3219   21.5631 C   0  0  0  0  0  0  0  0  0  0  0  0
   19.4269  -13.6536   22.1333 C   0  0  0  0  0  0  0  0  0  0  0  0
   16.6133  -14.6149   21.9144 O   0  0  0  0  0  0  0  0  0  0  0  0
   18.6869  -13.0115   21.1547 N   0  0  0  0  0  0  0  0  0  0  0  0
   19.3624  -12.4764   20.0271 C   0  0  0  0  0  0  0  0  0  0  0  0
   18.9743  -12.3908   18.9015 O   0  0  0  0  0  0  0  0  0  0  0  0
   20.6419  -11.7960   20.3295 C   0  0  0  0  0  0  0  0  0  0  0  0
   21.0502  -14.0534   27.1548 C   0  0  0  0  0  0  0  0  0  0  0  0
   21.2676  -13.4942   25.8563 C   0  0  0  0  0  0  0  0  0  0  0  0
   20.9028  -14.2028   24.7216 C   0  0  0  0  0  0  0  0  0  0  0  0
  1  2  1  0
  1  3  1  0
  4  2  1  1
  3  5  1  0
  4  6  1  0
  3  7  1  0
  4  7  1  0
  6  8  1  6
  6  9  1  0
  8 10  1  0
  9 11  1  0
 11 12  1  0
 12 13  2  0
 12 14  1  0
  5 15  1  0
 15 16  1  0
  7 17  1  0
 16 17  1  0
M  END
$$$$
3
     RDKit          3D

 10 11  0  0  0  0  0  0  0  0999 V2000
   11.5607  -11.0747   23.5713 C   0  0  0  0  0  0  0  0  0  0  0  0
   12.5827  -10.5475   22.8494 C   0  0  0  0  0  0  0  0  0  0  0  0
   13.2179  -11.2634   21.8820 C   0  0  2  0  0  0  0  0  0  0  0  0
   12.9700  -12.6489   21.8391 C   0  0  1  0  0  0  0  0  0  0  0  0
   14.3139  -10.7534   20.9823 C   0  0  0  0  0  0  0  0  0  0  0  0
   11.2349  -12.4145   23.5306 C   0  0  0  0  0  0  0  0  0  0  0  0
   11.9255  -13.1813   22.5514 C   0  0  0  0  0  0  0  0  0  0  0  0
   13.6638  -13.4197   20.8114 C   0  0  0  0  0  0  0  0  0  0  0  0
   14.9654  -11.5977   20.3328 C   0  0  0  0  0  0  0  0  0  0  0  0
   14.6009  -12.9127   20.1889 C   0  0  0  0  0  0  0  0  0  0  0  0
  1  2  1  0
  3  2  1  1
  3  4  1  0
  3  5  1  0
  1  6  1  0
  4  7  1  6
  6  7  1  0
  4  8  1  0
  5  9  1  0
  8 10  1  0
  9 10  1  0
M  END
$$$$
30
     RDKit          3D

 17 19  0  0  0  0  0  0  0  0999 V2000
   20.2497  -11.7989   19.2731 C   0  0  0  0  0  0  0  0  0  0  0  0
   20.1965  -12.4320   20.4769 C   0  0  0  0  0  0  0  0  0  0  0  0
   18.9673  -12.7485   21.0767 C   0  0  1  0  0  0  0  0  0  0  0  0
   18.9773  -11.4173   18.9521 N   0  0  0  0  0  0  0  0  0  0  0  0
   17.7264  -12.3631   20.5816 C   0  0  2  0  0  0  0  0  0  0  0  0
   18.6912  -13.8291   22.2049 C   0  0  2  0  0  0  0  0  0  0  0  0
   17.7923  -11.5845   19.4217 C   0  0  0  0  0  0  0  0  0  0  0  0
   16.4277  -12.6796   21.2695 C   0  0  2  0  0  0  0  0  0  0  0  0
   17.5182  -14.0662   22.7322 C   0  0  2  0  0  0  0  0  0  0  0  0
   17.5463  -15.0605   23.7799 N   0  0  0  0  0  0  0  0  0  0  0  0
   16.3908  -13.5264   22.2665 N   0  0  0  0  0  0  0  0  0  0  0  0
   15.1807  -12.1524   20.7632 C   0  0  0  0  0  0  0  0  0  0  0  0
   14.5872  -12.4449   19.7386 C   0  0  0  0  0  0  0  0  0  0  0  0
   13.3016  -11.9054   19.4569 N   0  0  0  0  0  0  0  0  0  0  0  0
   14.9881  -13.4281   18.9321 O   0  0  0  0  0  0  0  0  0  0  0  0
   19.5898  -14.5700   23.1345 N   0  0  0  0  0  0  0  0  0  0  0  0
   18.7837  -15.3365   23.9673 C   0  0  0  0  0  0  0  0  0  0  0  0
  1  2  1  0
  3  2  1  6
  1  4  1  0
  3  5  1  0
  3  6  1  0
  4  7  1  0
  5  7  1  1
  5  8  1  0
  6  9  1  0
  9 10  1  6
  8 11  1  0
  9 11  1  0
  8 12  1  6
 12 13  1  0
 13 14  1  0
 13 15  2  0
  6 16  1  1
 10 17  1  0
 16 17  1  0
M  END
$$$$
31
     RDKit          3D

 17 20  0  0  0  0  0  0  0  0999 V2000
   19.7530  -12.0841   19.7492 C   0  0  0  0  0  0  0  0  0  0  0  0
   18.4622  -12.0998   19.9560 C   0  0  0  0  0  0  0  0  0  0  0  0
   17.4315  -11.3794   19.3805 N   0  0  0  0  0  0  0  0  0  0  0  0
   17.8566  -13.0075   20.9578 C   0  0  2  0  0  0  0  0  0  0  0  0
   18.8644  -13.9420   21.4961 C   0  0  0  0  0  0  0  0  0  0  0  0
   16.2268  -11.6497   19.8942 C   0  0  2  0  0  0  0  0  0  0  0  0
   16.4838  -12.7241   20.9585 C   0  0  2  0  0  0  0  0  0  0  0  0
   15.0230  -11.2362   19.4249 N   0  0  0  0  0  0  0  0  0  0  0  0
   15.5383  -13.3226   21.9248 C   0  0  0  0  0  0  0  0  0  0  0  0
   14.2197  -12.7808   21.7005 N   0  0  0  0  0  0  0  0  0  0  0  0
   13.1205  -13.1924   22.2694 C   0  0  0  0  0  0  0  0  0  0  0  0
   20.5552  -12.7694   20.4596 C   0  0  0  0  0  0  0  0  0  0  0  0
   11.9588  -12.2353   22.3268 C   0  0  0  0  0  0  0  0  0  0  0  0
   13.9606  -11.6036   20.8287 C   0  0  2  0  0  0  0  0  0  0  0  0
   11.9972  -11.1421   21.4397 C   0  0  0  0  0  0  0  0  0  0  0  0
   20.0726  -13.7517   21.3457 C   0  0  0  0  0  0  0  0  0  0  0  0
   13.1244  -10.8302   20.7932 C   0  0  0  0  0  0  0  0  0  0  0  0
  1  2  1  0
  2  3  1  0
  2  4  1  0
  4  5  1  6
  6  3  1  6
  4  7  1  0
  6  7  1  0
  6  8  1  0
  7  9  1  1
  9 10  1  0
 10 11  1  0
  1 12  1  0
 11 13  1  0
  8 14  1  0
 10 14  1  0
 13 15  1  0
  5 16  1  0
 12 16  1  0
 14 17  1  6
 15 17  1  0
M  END
$$$$
32
     RDKit          3D

 17 17  0  0  0  0  0  0  0  0999 V2000
   20.5014  -11.9533   19.5846 C   0  0  0  0  0  0  0  0  0  0  0  0
   20.0140  -12.6289   20.7017 C   0  0  0  0  0  0  0  0  0  0  0  0
   18.5722  -12.6359   20.9348 C   0  0  0  0  0  0  0  0  0  0  0  0
   17.6341  -12.0409   20.1198 C   0  0  1  0  0  0  0  0  0  0  0  0
   19.2834  -11.6349   18.6589 C   0  0  0  0  0  0  0  0  0  0  0  0
   18.0322  -11.5750   18.9639 C   0  0  0  0  0  0  0  0  0  0  0  0
   17.9572  -13.3645   22.1450 O   0  0  0  0  0  0  0  0  0  0  0  0
   16.0983  -12.0963   20.5965 C   0  0  0  0  0  0  0  0  0  0  0  0
   18.3010  -14.8522   22.2083 C   0  0  0  0  0  0  0  0  0  0  0  0
   15.3800  -11.1377   19.9820 O   0  0  0  0  0  0  0  0  0  0  0  0
   15.5931  -12.8019   21.4867 N   0  0  0  0  0  0  0  0  0  0  0  0
   18.8174  -15.1320   23.4417 C   0  0  0  0  0  0  0  0  0  0  0  0
   19.1957  -16.1699   23.8556 O   0  0  0  0  0  0  0  0  0  0  0  0
   14.1577  -12.7278   21.7741 C   0  0  0  0  0  0  0  0  0  0  0  0
   19.2206  -14.0087   24.3096 N   0  0  0  0  0  0  0  0  0  0  0  0
   20.2565  -14.0923   25.2876 C   0  0  0  0  0  0  0  0  0  0  0  0
   21.0905  -13.0457   25.4099 C   0  0  0  0  0  0  0  0  0  0  0  0
  1  2  1  0
  2  3  1  0
  3  4  1  0
  1  5  1  0
  4  6  1  0
  5  6  1  0
  3  7  1  0
  4  8  1  6
  7  9  1  0
  8 10  2  0
  8 11  1  0
  9 12  1  0
 12 13  2  0
 11 14  1  0
 12 15  1  0
 15 16  1  0
 16 17  1  0
M  END
$$$$
33
     RDKit          3D

 17 19  0  0  0  0  0  0  0  0999 V2000
   20.2497  -11.7989   19.2731 C   0  0  0  0  0  0  0  0  0  0  0  0
   18.9049  -11.7071   19.0872 C   0  0  0  0  0  0  0  0  0  0  0  0
   18.0602  -12.0562   20.1462 C   0  0  2  0  0  0  0  0  0  0  0  0
   20.6063  -12.6055   20.4443 C   0  0  0  0  0  0  0  0  0  0  0  0
   19.5335  -12.9429   21.3065 C   0  0  0  0  0  0  0  0  0  0  0  0
   18.3379  -12.7024   21.1666 C   0  0  0  0  0  0  0  0  0  0  0  0
   17.3580  -13.1641   22.0801 O   0  0  0  0  0  0  0  0  0  0  0  0
   16.6450  -14.1743   21.7776 C   0  0  0  0  0  0  0  0  0  0  0  0
   16.5633  -11.7639   19.9223 C   0  0  0  0  0  0  0  0  0  0  0  0
   15.5885  -12.6786   20.5094 C   0  0  2  0  0  0  0  0  0  0  0  0
   15.4633  -13.7725   21.1959 C   0  0  2  0  0  0  0  0  0  0  0  0
   14.1290  -12.3618   19.7493 C   0  0  0  0  0  0  0  0  0  0  0  0
   14.0666  -11.8444   18.7445 O   0  0  0  0  0  0  0  0  0  0  0  0
   13.0681  -12.7461   20.4294 N   0  0  0  0  0  0  0  0  0  0  0  0
   14.3111  -14.1516   21.7958 N   0  0  0  0  0  0  0  0  0  0  0  0
   13.0853  -13.7012   21.3402 C   0  0  0  0  0  0  0  0  0  0  0  0
   11.9113  -14.2559   21.7836 N   0  0  0  0  0  0  0  0  0  0  0  0
  1  2  1  0
  3  2  1  6
  1  4  1  0
  4  5  1  0
  3  6  1  0
  5  6  1  0
  6  7  1  0
  7  8  1  0
  3  9  1  0
 10  9  1  6
 11  8  1  1
 10 11  1  0
 10 12  1  0
 12 13  2  0
 12 14  1  0
 11 15  1  0
 14 16  1  0
 15 16  1  0
 16 17  1  0
M  END
$$$$
34
     RDKit          3D

 18 19  0  0  0  0  0  0  0  0999 V2000
   20.1885  -12.8464   20.6593 C   0  0  0  0  0  0  0  0  0  0  0  0
   19.8070  -11.9017   19.7794 C   0  0  0  0  0  0  0  0  0  0  0  0
   19.0681  -13.2738   21.5665 C   0  0  1  0  0  0  0  0  0  0  0  0
   18.3123  -11.8377   19.6581 C   0  0  0  0  0  0  0  0  0  0  0  0
   17.8863  -12.6873   20.8199 C   0  0  2  0  0  0  0  0  0  0  0  0
   16.4339  -12.8276   21.2078 C   0  0  2  0  0  0  0  0  0  0  0  0
   15.4755  -12.0298   20.7067 C   0  0  0  0  0  0  0  0  0  0  0  0
   14.1050  -12.1117   21.1088 C   0  0  0  0  0  0  0  0  0  0  0  0
   18.9214  -14.3804   22.3537 C   0  0  0  0  0  0  0  0  0  0  0  0
   16.0378  -13.7983   22.1962 N   0  0  0  0  0  0  0  0  0  0  0  0
   13.8222  -13.1114   22.0255 N   0  0  0  0  0  0  0  0  0  0  0  0
   14.6389  -14.0045   22.3416 C   0  0  0  0  0  0  0  0  0  0  0  0
   18.7971  -15.5831   22.1114 O   0  0  0  0  0  0  0  0  0  0  0  0
   18.7950  -13.9638   23.8162 N   0  0  0  0  0  0  0  0  0  0  0  0
   18.6714  -14.9985   24.7926 C   0  0  0  0  0  0  0  0  0  0  0  0
   19.7732  -14.9843   25.8052 C   0  0  0  0  0  0  0  0  0  0  0  0
   20.5751  -13.8252   25.8242 C   0  0  0  0  0  0  0  0  0  0  0  0
   21.8233  -13.8581   26.1904 C   0  0  0  0  0  0  0  0  0  0  0  0
  1  2  1  0
  1  3  1  0
  2  4  1  0
  3  5  1  0
  5  4  1  1
  5  6  1  0
  6  7  1  1
  7  8  1  0
  3  9  1  6
  6 10  1  0
  8 11  1  0
 10 12  1  0
 11 12  1  0
  9 13  2  0
  9 14  1  0
 14 15  1  0
 15 16  1  0
 16 17  1  0
 17 18  1  0
M  END
$$$$
35
     RDKit          3D

 18 20  0  0  0  0  0  0  0  0999 V2000
   21.3798  -13.0882   26.4702 C   0  0  0  0  0  0  0  0  0  0  0  0
   20.7808  -13.7332   25.4153 C   0  0  2  0  0  0  0  0  0  0  0  0
   19.6965  -14.7349   25.6834 C   0  0  0  0  0  0  0  0  0  0  0  0
   21.1785  -13.7238   24.1367 O   0  0  0  0  0  0  0  0  0  0  0  0
   19.2804  -15.4236   24.6679 N   0  0  0  0  0  0  0  0  0  0  0  0
   20.4379  -14.5442   23.3769 C   0  0  1  0  0  0  0  0  0  0  0  0
   18.3826  -16.3260   24.2339 C   0  0  1  0  0  0  0  0  0  0  0  0
   19.5625  -13.9755   22.2669 C   0  0  1  0  0  0  0  0  0  0  0  0
   17.8629  -16.9312   25.2819 O   0  0  0  0  0  0  0  0  0  0  0  0
   16.6084  -17.4976   24.9283 C   0  0  0  0  0  0  0  0  0  0  0  0
   18.2041  -14.0045   22.2304 O   0  0  0  0  0  0  0  0  0  0  0  0
   17.4499  -15.8896   23.1300 C   0  0  1  0  0  0  0  0  0  0  0  0
   17.8454  -15.3554   21.8754 C   0  0  0  0  0  0  0  0  0  0  0  0
   16.6584  -17.4327   23.4602 C   0  0  0  0  0  0  0  0  0  0  0  0
   20.4372  -12.9632   21.5492 C   0  0  0  0  0  0  0  0  0  0  0  0
   19.6810  -12.4374   20.4789 C   0  0  0  0  0  0  0  0  0  0  0  0
   18.4600  -11.8534   20.4966 C   0  0  0  0  0  0  0  0  0  0  0  0
   20.5616  -12.3277   19.3515 C   0  0  0  0  0  0  0  0  0  0  0  0
  2  1  1  1
  2  3  1  0
  2  4  1  0
  3  5  1  0
  6  4  1  1
  5  6  1  0
  5  7  1  0
  6  8  1  0
  7  9  1  1
  9 10  1  0
  8 11  1  0
  7 12  1  0
 11 13  1  0
 12 13  1  6
 10 14  1  0
 12 14  1  0
  8 15  1  1
 15 16  1  0
 16 17  1  0
 16 18  2  0
M  END
$$$$
36
     RDKit          3D

 18 18  0  0  0  0  0  0  0  0999 V2000
   20.5014  -11.9533   19.5846 C   0  0  0  0  0  0  0  0  0  0  0  0
   20.0140  -12.6289   20.7017 C   0  0  0  0  0  0  0  0  0  0  0  0
   18.5722  -12.6359   20.9348 C   0  0  0  0  0  0  0  0  0  0  0  0
   17.6341  -12.0409   20.1198 C   0  0  1  0  0  0  0  0  0  0  0  0
   19.2834  -11.6349   18.6589 C   0  0  0  0  0  0  0  0  0  0  0  0
   18.0322  -11.5750   18.9639 C   0  0  0  0  0  0  0  0  0  0  0  0
   17.9572  -13.3645   22.1450 O   0  0  0  0  0  0  0  0  0  0  0  0
   16.0983  -12.0963   20.5965 C   0  0  0  0  0  0  0  0  0  0  0  0
   18.3010  -14.8522   22.2083 C   0  0  0  0  0  0  0  0  0  0  0  0
   15.3800  -11.1377   19.9820 O   0  0  0  0  0  0  0  0  0  0  0  0
   15.5931  -12.8019   21.4867 N   0  0  0  0  0  0  0  0  0  0  0  0
   18.8174  -15.1320   23.4417 C   0  0  0  0  0  0  0  0  0  0  0  0
   19.1957  -16.1699   23.8556 O   0  0  0  0  0  0  0  0  0  0  0  0
   14.1577  -12.7278   21.7741 C   0  0  0  0  0  0  0  0  0  0  0  0
   19.2206  -14.0087   24.3096 N   0  0  0  0  0  0  0  0  0  0  0  0
   20.0060  -14.3036   25.5211 C   0  0  0  0  0  0  0  0  0  0  0  0
   21.3838  -14.1169   25.3085 C   0  0  0  0  0  0  0  0  0  0  0  0
   22.0077  -13.4001   26.2846 C   0  0  0  0  0  0  0  0  0  0  0  0
  1  2  1  0
  2  3  1  0
  3  4  1  0
  1  5  1  0
  4  6  1  0
  5  6  1  0
  3  7  1  0
  4  8  1  6
  7  9  1  0
  8 10  2  0
  8 11  1  0
  9 12  1  0
 12 13  2  0
 11 14  1  0
 12 15  1  0
 15 16  1  0
 16 17  1  0
 17 18  1  0
M  END
$$$$
37
     RDKit          3D

 18 20  0  0  0  0  0  0  0  0999 V2000
   20.3722  -12.8727   20.5736 C   0  0  0  0  0  0  0  0  0  0  0  0
   19.8961  -11.8796   19.7834 C   0  0  0  0  0  0  0  0  0  0  0  0
   19.4132  -13.5120   21.4506 C   0  0  2  0  0  0  0  0  0  0  0  0
   18.0378  -13.0137   21.4314 C   0  0  1  0  0  0  0  0  0  0  0  0
   17.8407  -12.0857   20.4950 C   0  0  0  0  0  0  0  0  0  0  0  0
   19.9007  -14.5402   22.4549 C   0  0  0  0  0  0  0  0  0  0  0  0
   18.6484  -11.4913   19.6817 N   0  0  0  0  0  0  0  0  0  0  0  0
   16.9654  -13.6764   22.2822 C   0  0  0  0  0  0  0  0  0  0  0  0
   16.2850  -11.9245   20.6311 C   0  0  0  0  0  0  0  0  0  0  0  0
   15.8604  -12.9077   21.6359 N   0  0  0  0  0  0  0  0  0  0  0  0
   14.4380  -13.0250   21.8997 C   0  0  0  0  0  0  0  0  0  0  0  0
   15.3825  -11.0977   19.9920 C   0  0  0  0  0  0  0  0  0  0  0  0
   20.3766  -14.2309   23.7006 C   0  0  0  0  0  0  0  0  0  0  0  0
   14.1168  -11.3961   20.2574 C   0  0  0  0  0  0  0  0  0  0  0  0
   13.6431  -12.2017   21.1707 C   0  0  0  0  0  0  0  0  0  0  0  0
   21.4881  -13.8311   23.9072 O   0  0  0  0  0  0  0  0  0  0  0  0
   19.4917  -14.1102   24.8109 O   0  0  0  0  0  0  0  0  0  0  0  0
   19.9347  -14.7793   25.9864 C   0  0  0  0  0  0  0  0  0  0  0  0
  1  2  1  0
  1  3  1  0
  3  4  1  0
  4  5  1  0
  3  6  1  1
  2  7  1  0
  5  7  1  0
  4  8  1  6
  5  9  1  0
  8 10  1  0
  9 10  1  0
 10 11  1  0
  9 12  1  0
  6 13  1  0
 12 14  1  0
 11 15  1  0
 14 15  1  0
 13 16  2  0
 13 17  1  0
 17 18  1  0
M  END
$$$$
38
     RDKit          3D

 18 18  0  0  0  0  0  0  0  0999 V2000
   20.1702  -12.9575   20.7349 C   0  0  0  0  0  0  0  0  0  0  0  0
   19.0426  -13.4565   21.4208 C   0  0  0  0  0  0  0  0  0  0  0  0
   19.9671  -12.0228   19.6887 C   0  0  0  0  0  0  0  0  0  0  0  0
   18.5822  -11.7188   19.4320 C   0  0  0  0  0  0  0  0  0  0  0  0
   17.5276  -12.1102   20.1335 C   0  0  1  0  0  0  0  0  0  0  0  0
   16.1719  -11.7544   19.8518 C   0  0  0  0  0  0  0  0  0  0  0  0
   17.7570  -13.1217   21.1595 C   0  0  2  0  0  0  0  0  0  0  0  0
   15.5642  -11.9274   18.8204 O   0  0  0  0  0  0  0  0  0  0  0  0
   19.4290  -14.5687   22.6226 C   0  0  0  0  0  0  0  0  0  0  0  0
   16.8121  -13.6290   22.1745 O   0  0  0  0  0  0  0  0  0  0  0  0
   15.3201  -11.3146   20.8993 N   0  0  0  0  0  0  0  0  0  0  0  0
   19.0716  -15.7685   22.4291 O   0  0  0  0  0  0  0  0  0  0  0  0
   20.0215  -14.1703   23.7776 N   0  0  0  0  0  0  0  0  0  0  0  0
   20.3307  -14.6777   24.7105 C   0  0  0  0  0  0  0  0  0  0  0  0
   13.9512  -10.8891   20.6904 C   0  0  0  0  0  0  0  0  0  0  0  0
   13.0525  -11.5425   21.7203 C   0  0  0  0  0  0  0  0  0  0  0  0
   20.9571  -13.9460   25.8698 C   0  0  0  0  0  0  0  0  0  0  0  0
   20.0638  -15.9853   25.1066 O   0  0  0  0  0  0  0  0  0  0  0  0
  1  2  1  0
  1  3  1  0
  3  4  1  0
  4  5  1  0
  5  6  1  6
  2  7  1  0
  5  7  1  0
  6  8  2  0
  2  9  1  0
  7 10  1  1
  6 11  1  0
  9 12  2  0
  9 13  1  0
 13 14  1  0
 11 15  1  0
 15 16  1  0
 14 17  1  0
 14 18  2  0
M  END
$$$$
39
     RDKit          3D

 18 19  0  0  0  0  0  0  0  0999 V2000
   20.3470  -12.1501   19.8558 C   0  0  0  0  0  0  0  0  0  0  0  0
   19.8317  -12.8515   20.8502 C   0  0  2  0  0  0  0  0  0  0  0  0
   20.4231  -13.7341   21.6259 N   0  0  0  0  0  0  0  0  0  0  0  0
   18.3790  -13.2330   20.8422 C   0  0  2  0  0  0  0  0  0  0  0  0
   19.5619  -14.3285   22.4854 N   0  0  0  0  0  0  0  0  0  0  0  0
   17.3294  -12.5449   20.1773 C   0  0  0  0  0  0  0  0  0  0  0  0
   18.2565  -14.0336   21.9943 N   0  0  0  0  0  0  0  0  0  0  0  0
   17.1011  -14.6713   22.6113 C   0  0  0  0  0  0  0  0  0  0  0  0
   17.2222  -15.5069   23.5158 N   0  0  0  0  0  0  0  0  0  0  0  0
   17.4360  -16.8497   23.3583 C   0  0  0  0  0  0  0  0  0  0  0  0
   15.9355  -14.5638   21.9785 O   0  0  0  0  0  0  0  0  0  0  0  0
   17.3923  -17.6361   24.5438 C   0  0  0  0  0  0  0  0  0  0  0  0
   17.9769  -16.9404   25.6489 C   0  0  0  0  0  0  0  0  0  0  0  0
   17.9703  -15.5273   25.6379 C   0  0  0  0  0  0  0  0  0  0  0  0
   17.8048  -14.8014   24.5068 C   0  0  0  0  0  0  0  0  0  0  0  0
   15.9248  -12.6778   20.3284 C   0  0  0  0  0  0  0  0  0  0  0  0
   15.1540  -12.9588   19.2052 C   0  0  0  0  0  0  0  0  0  0  0  0
   15.2266  -11.3802   20.9721 C   0  0  0  0  0  0  0  0  0  0  0  0
  2  1  1  6
  2  3  1  0
  2  4  1  0
  3  5  1  0
  4  6  1  1
  4  7  1  0
  5  7  1  0
  7  8  1  0
  8  9  1  0
  9 10  1  0
  8 11  2  0
 10 12  1  0
 12 13  1  0
 13 14  1  0
  9 15  1  0
 14 15  1  0
  6 16  1  0
 16 17  1  0
 16 18  1  0
M  END
$$$$
4
     RDKit          3D

 10 11  0  0  0  0  0  0  0  0999 V2000
   14.1586  -12.9169   18.9339 C   0  0  0  0  0  0  0  0  0  0  0  0
   13.8679  -12.3453   20.0043 C   0  0  2  0  0  0  0  0  0  0  0  0
   12.5790  -12.2059   20.3173 N   0  0  0  0  0  0  0  0  0  0  0  0
   15.5697  -12.9677   18.3828 C   0  0  0  0  0  0  0  0  0  0  0  0
   12.1735  -12.5834   21.5429 C   0  0  0  0  0  0  0  0  0  0  0  0
   14.7288  -11.5941   20.7552 C   0  0  2  0  0  0  0  0  0  0  0  0
   16.3827  -12.0665   19.1284 C   0  0  0  0  0  0  0  0  0  0  0  0
   16.0527  -11.4694   20.2584 C   0  0  0  0  0  0  0  0  0  0  0  0
   14.2786  -11.2504   22.0691 C   0  0  0  0  0  0  0  0  0  0  0  0
   12.8921  -11.4786   22.4858 C   0  0  0  0  0  0  0  0  0  0  0  0
  2  1  1  6
  2  3  1  0
  1  4  1  0
  3  5  1  0
  2  6  1  0
  4  7  1  0
  6  8  1  1
  7  8  1  0
  6  9  1  0
  5 10  1  0
  9 10  1  0
M  END
$$$$
40
     RDKit          3D

 19 22  0  0  0  0  0  0  0  0999 V2000
   20.1181  -13.1118   20.9806 C   0  0  0  0  0  0  0  0  0  0  0  0
   18.9864  -13.5292   21.5966 C   0  0  2  0  0  0  0  0  0  0  0  0
   20.0110  -12.1472   19.8861 C   0  0  2  0  0  0  0  0  0  0  0  0
   21.1933  -11.7173   19.2054 F   0  0  0  0  0  0  0  0  0  0  0  0
   18.8636  -11.5405   19.4809 C   0  0  0  0  0  0  0  0  0  0  0  0
   17.6377  -12.0835   20.1973 C   0  0  1  0  0  0  0  0  0  0  0  0
   17.7091  -12.9462   21.2537 C   0  0  1  0  0  0  0  0  0  0  0  0
   18.8505  -14.4402   22.7851 C   0  0  1  0  0  0  0  0  0  0  0  0
   16.2102  -11.3970   19.7623 C   0  0  0  0  0  0  0  0  0  0  0  0
   16.7296  -13.5803   22.0476 N   0  0  0  0  0  0  0  0  0  0  0  0
   17.3525  -14.4569   22.9223 N   0  0  0  0  0  0  0  0  0  0  0  0
   15.2139  -12.2789   20.0866 N   0  0  0  0  0  0  0  0  0  0  0  0
   19.6913  -15.1789   23.5428 C   0  0  0  0  0  0  0  0  0  0  0  0
   19.0660  -15.8695   24.5855 C   0  0  0  0  0  0  0  0  0  0  0  0
   17.6458  -15.8468   24.7421 C   0  0  0  0  0  0  0  0  0  0  0  0
   16.8174  -15.1532   23.9165 C   0  0  0  0  0  0  0  0  0  0  0  0
   15.2551  -13.0170   21.3838 C   0  0  0  0  0  0  0  0  0  0  0  0
   13.8266  -12.2321   19.5825 C   0  0  0  0  0  0  0  0  0  0  0  0
   14.3568  -13.4829   22.1042 O   0  0  0  0  0  0  0  0  0  0  0  0
  2  1  1  1
  1  3  1  0
  3  4  1  1
  3  5  1  0
  6  5  1  1
  2  7  1  0
  6  7  1  0
  2  8  1  0
  6  9  1  0
  7 10  1  6
  8 11  1  0
 10 11  1  0
  9 12  1  0
  8 13  1  6
 13 14  1  0
 14 15  1  0
 11 16  1  0
 15 16  1  0
 10 17  1  0
 12 17  1  0
 12 18  1  0
 17 19  2  0
M  END
$$$$
41
     RDKit          3D

 19 20  0  0  0  0  0  0  0  0999 V2000
   20.1885  -12.8464   20.6593 C   0  0  0  0  0  0  0  0  0  0  0  0
   19.8070  -11.9017   19.7794 C   0  0  0  0  0  0  0  0  0  0  0  0
   19.0681  -13.2738   21.5665 C   0  0  1  0  0  0  0  0  0  0  0  0
   18.3123  -11.8377   19.6581 C   0  0  0  0  0  0  0  0  0  0  0  0
   17.8863  -12.6873   20.8199 C   0  0  2  0  0  0  0  0  0  0  0  0
   16.4339  -12.8276   21.2078 C   0  0  2  0  0  0  0  0  0  0  0  0
   15.4755  -12.0298   20.7067 C   0  0  0  0  0  0  0  0  0  0  0  0
   14.1050  -12.1117   21.1088 C   0  0  2  0  0  0  0  0  0  0  0  0
   18.9214  -14.3804   22.3537 C   0  0  0  0  0  0  0  0  0  0  0  0
   16.0378  -13.7983   22.1962 N   0  0  0  0  0  0  0  0  0  0  0  0
   13.8222  -13.1114   22.0255 C   0  0  0  0  0  0  0  0  0  0  0  0
   20.0763  -15.0962   22.6980 C   0  0  0  0  0  0  0  0  0  0  0  0
   20.1172  -15.5900   24.0356 C   0  0  0  0  0  0  0  0  0  0  0  0
   12.8988  -11.4161   20.6900 C   0  0  0  0  0  0  0  0  0  0  0  0
   14.9265  -14.0501   22.3497 C   0  0  0  0  0  0  0  0  0  0  0  0
   20.6916  -16.6133   24.4614 O   0  0  0  0  0  0  0  0  0  0  0  0
   19.7341  -14.7146   25.1447 N   0  0  0  0  0  0  0  0  0  0  0  0
   20.4931  -14.0338   26.0058 C   0  0  0  0  0  0  0  0  0  0  0  0
   21.5687  -13.4617   25.7584 C   0  0  0  0  0  0  0  0  0  0  0  0
  1  2  1  0
  1  3  1  0
  2  4  1  0
  3  5  1  0
  5  4  1  1
  5  6  1  0
  6  7  1  1
  7  8  1  0
  3  9  1  6
  6 10  1  0
  8 11  1  0
  9 12  1  0
 12 13  1  0
  8 14  1  6
 10 15  1  0
 11 15  1  0
 13 16  2  0
 13 17  1  0
 17 18  1  0
 18 19  1  0
M  END
$$$$
42
     RDKit          3D

 19 21  0  0  0  0  0  0  0  0999 V2000
   20.1702  -12.9575   20.7349 C   0  0  0  0  0  0  0  0  0  0  0  0
   19.0426  -13.4565   21.4208 C   0  0  0  0  0  0  0  0  0  0  0  0
   19.9671  -12.0228   19.6887 C   0  0  0  0  0  0  0  0  0  0  0  0
   18.5822  -11.7188   19.4320 C   0  0  0  0  0  0  0  0  0  0  0  0
   17.5276  -12.1102   20.1335 C   0  0  1  0  0  0  0  0  0  0  0  0
   16.1719  -11.7544   19.8518 C   0  0  0  0  0  0  0  0  0  0  0  0
   17.7570  -13.1217   21.1595 C   0  0  2  0  0  0  0  0  0  0  0  0
   15.5642  -11.9274   18.8204 O   0  0  0  0  0  0  0  0  0  0  0  0
   19.4290  -14.5687   22.6226 C   0  0  1  0  0  0  0  0  0  0  0  0
   16.8121  -13.6290   22.1745 O   0  0  0  0  0  0  0  0  0  0  0  0
   15.3201  -11.3146   20.8993 N   0  0  0  0  0  0  0  0  0  0  0  0
   19.9972  -14.1168   23.7756 C   0  0  0  0  0  0  0  0  0  0  0  0
   18.2107  -15.3816   23.0045 C   0  0  0  0  0  0  0  0  0  0  0  0
   13.9537  -11.2330   21.0411 C   0  0  0  0  0  0  0  0  0  0  0  0
   21.2830  -13.4729   23.7483 C   0  0  0  0  0  0  0  0  0  0  0  0
   16.9295  -14.7450   22.5649 C   0  0  0  0  0  0  0  0  0  0  0  0
   21.9214  -13.5077   25.0462 C   0  0  0  0  0  0  0  0  0  0  0  0
   19.4840  -14.2076   25.1707 C   0  0  0  0  0  0  0  0  0  0  0  0
   20.6660  -14.1642   26.0854 C   0  0  0  0  0  0  0  0  0  0  0  0
  1  2  1  0
  1  3  1  0
  3  4  1  0
  4  5  1  0
  5  6  1  6
  2  7  1  0
  5  7  1  0
  6  8  2  0
  2  9  1  0
  7 10  1  1
  6 11  1  0
  9 12  1  1
  9 13  1  0
 11 14  1  0
 12 15  1  0
 10 16  1  0
 13 16  1  0
 15 17  1  0
 12 18  1  0
 17 19  1  0
 18 19  1  0
M  END
$$$$
43
     RDKit          3D

 19 21  0  0  0  0  0  0  0  0999 V2000
   20.1181  -13.1118   20.9806 C   0  0  0  0  0  0  0  0  0  0  0  0
   19.8419  -12.1449   20.0874 C   0  0  0  0  0  0  0  0  0  0  0  0
   20.8455  -11.6370   19.2261 F   0  0  0  0  0  0  0  0  0  0  0  0
   19.0965  -13.6757   21.7881 C   0  0  2  0  0  0  0  0  0  0  0  0
   18.5265  -11.6180   19.9501 C   0  0  0  0  0  0  0  0  0  0  0  0
   19.3075  -14.7217   22.7517 C   0  0  1  0  0  0  0  0  0  0  0  0
   17.4523  -12.2546   20.7102 C   0  0  2  0  0  0  0  0  0  0  0  0
   16.0869  -11.7809   20.6226 N   0  0  0  0  0  0  0  0  0  0  0  0
   15.1266  -12.4099   21.2020 C   0  0  1  0  0  0  0  0  0  0  0  0
   17.6575  -13.2834   21.6134 C   0  0  1  0  0  0  0  0  0  0  0  0
   15.4284  -13.5089   22.0106 N   0  0  0  0  0  0  0  0  0  0  0  0
   16.6542  -13.9408   22.1902 C   0  0  0  0  0  0  0  0  0  0  0  0
   13.7396  -11.9420   21.0771 C   0  0  0  0  0  0  0  0  0  0  0  0
   17.1906  -14.9066   22.8694 N   0  0  0  0  0  0  0  0  0  0  0  0
   20.6898  -15.0075   23.1276 C   0  0  0  0  0  0  0  0  0  0  0  0
   18.2530  -15.1769   23.4185 C   0  0  0  0  0  0  0  0  0  0  0  0
   21.0893  -14.6399   24.4024 C   0  0  0  0  0  0  0  0  0  0  0  0
   22.0488  -15.2392   25.1079 O   0  0  0  0  0  0  0  0  0  0  0  0
   20.6117  -13.5004   25.2337 C   0  0  0  0  0  0  0  0  0  0  0  0
  1  2  1  0
  2  3  1  0
  4  1  1  6
  2  5  1  0
  4  6  1  0
  7  5  1  1
  7  8  1  0
  8  9  1  0
  4 10  1  0
  7 10  1  0
  9 11  1  0
 10 12  1  6
 11 12  1  0
  9 13  1  1
 12 14  1  0
  6 15  1  1
  6 16  1  0
 14 16  1  0
 15 17  1  0
 17 18  2  0
 17 19  1  0
M  END
$$$$
44
     RDKit          3D

 19 21  0  0  0  0  0  0  0  0999 V2000
   20.3722  -12.8727   20.5736 C   0  0  0  0  0  0  0  0  0  0  0  0
   19.8961  -11.8796   19.7834 C   0  0  0  0  0  0  0  0  0  0  0  0
   19.4132  -13.5120   21.4506 C   0  0  2  0  0  0  0  0  0  0  0  0
   18.0378  -13.0137   21.4314 C   0  0  1  0  0  0  0  0  0  0  0  0
   17.8407  -12.0857   20.4950 C   0  0  0  0  0  0  0  0  0  0  0  0
   19.9007  -14.5402   22.4549 C   0  0  0  0  0  0  0  0  0  0  0  0
   18.6484  -11.4913   19.6817 N   0  0  0  0  0  0  0  0  0  0  0  0
   16.9654  -13.6764   22.2822 C   0  0  0  0  0  0  0  0  0  0  0  0
   16.2850  -11.9245   20.6311 C   0  0  1  0  0  0  0  0  0  0  0  0
   15.7584  -13.1519   21.9084 N   0  0  0  0  0  0  0  0  0  0  0  0
   20.4556  -14.1951   23.6409 C   0  0  2  0  0  0  0  0  0  0  0  0
   20.2231  -14.9194   24.6689 C   0  0  0  0  0  0  0  0  0  0  0  0
   15.4482  -11.0285   20.3265 O   0  0  0  0  0  0  0  0  0  0  0  0
   14.1770  -11.2674   20.6710 C   0  0  0  0  0  0  0  0  0  0  0  0
   19.5632  -16.0342   24.7392 O   0  0  0  0  0  0  0  0  0  0  0  0
   20.8453  -14.2624   25.6721 C   0  0  0  0  0  0  0  0  0  0  0  0
   18.2598  -16.0124   25.0708 C   0  0  0  0  0  0  0  0  0  0  0  0
   21.3550  -13.0159   25.4638 C   0  0  0  0  0  0  0  0  0  0  0  0
   21.0626  -12.9575   23.9337 C   0  0  0  0  0  0  0  0  0  0  0  0
  1  2  1  0
  1  3  1  0
  3  4  1  0
  4  5  1  0
  3  6  1  1
  2  7  1  0
  5  7  1  0
  4  8  1  6
  5  9  1  0
  8 10  1  0
  9 10  1  0
 11  6  1  1
 11 12  1  0
  9 13  1  1
 13 14  1  0
 12 15  1  0
 12 16  1  0
 15 17  1  0
 16 18  1  0
 11 19  1  0
 18 19  1  0
M  END
$$$$
45
     RDKit          3D

 19 20  0  0  0  0  0  0  0  0999 V2000
   20.5014  -11.9533   19.5846 C   0  0  0  0  0  0  0  0  0  0  0  0
   20.0140  -12.6289   20.7017 C   0  0  0  0  0  0  0  0  0  0  0  0
   18.5722  -12.6359   20.9348 C   0  0  0  0  0  0  0  0  0  0  0  0
   17.6341  -12.0409   20.1198 C   0  0  1  0  0  0  0  0  0  0  0  0
   19.2834  -11.6349   18.6589 C   0  0  0  0  0  0  0  0  0  0  0  0
   18.0322  -11.5750   18.9639 C   0  0  0  0  0  0  0  0  0  0  0  0
   17.9572  -13.3645   22.1450 O   0  0  0  0  0  0  0  0  0  0  0  0
   16.0983  -12.0963   20.5965 C   0  0  0  0  0  0  0  0  0  0  0  0
   18.3010  -14.8522   22.2083 C   0  0  2  0  0  0  0  0  0  0  0  0
   15.3800  -11.1377   19.9820 O   0  0  0  0  0  0  0  0  0  0  0  0
   15.5931  -12.8019   21.4867 N   0  0  0  0  0  0  0  0  0  0  0  0
   17.1885  -15.5052   22.0727 C   0  0  0  0  0  0  0  0  0  0  0  0
   14.1411  -12.7519   21.7312 C   0  0  0  0  0  0  0  0  0  0  0  0
   19.0230  -15.0106   23.6059 C   0  0  0  0  0  0  0  0  0  0  0  0
   17.3041  -16.9794   22.2527 C   0  0  0  0  0  0  0  0  0  0  0  0
   17.9141  -17.2327   23.7179 C   0  0  0  0  0  0  0  0  0  0  0  0
   19.1509  -16.4457   23.8768 N   0  0  0  0  0  0  0  0  0  0  0  0
   19.4301  -14.0467   24.3486 O   0  0  0  0  0  0  0  0  0  0  0  0
   20.3253  -16.7462   24.6262 C   0  0  0  0  0  0  0  0  0  0  0  0
  1  2  1  0
  2  3  1  0
  3  4  1  0
  1  5  1  0
  4  6  1  0
  5  6  1  0
  3  7  1  0
  4  8  1  6
  9  7  1  1
  8 10  2  0
  8 11  1  0
  9 12  1  0
 11 13  1  0
  9 14  1  0
 12 15  1  0
 15 16  1  0
 14 17  1  0
 16 17  1  0
 14 18  2  0
 17 19  1  0
M  END
$$$$
46
     RDKit          3D

 19 22  0  0  0  0  0  0  0  0999 V2000
   20.1702  -12.9575   20.7349 C   0  0  0  0  0  0  0  0  0  0  0  0
   19.0426  -13.4565   21.4208 C   0  0  1  0  0  0  0  0  0  0  0  0
   19.9671  -12.0228   19.6887 C   0  0  0  0  0  0  0  0  0  0  0  0
   18.5822  -11.7188   19.4320 C   0  0  0  0  0  0  0  0  0  0  0  0
   17.5276  -12.1102   20.1335 C   0  0  1  0  0  0  0  0  0  0  0  0
   16.1719  -11.7544   19.8518 C   0  0  0  0  0  0  0  0  0  0  0  0
   15.2292  -11.7182   20.8791 C   0  0  2  0  0  0  0  0  0  0  0  0
   19.3041  -14.3936   22.5875 C   0  0  1  0  0  0  0  0  0  0  0  0
   17.7603  -13.1331   21.1710 C   0  0  2  0  0  0  0  0  0  0  0  0
   15.3401  -12.7424   21.9780 C   0  0  0  0  0  0  0  0  0  0  0  0
   16.6958  -13.3730   22.1899 C   0  0  1  0  0  0  0  0  0  0  0  0
   13.7824  -11.4725   20.5008 C   0  0  0  0  0  0  0  0  0  0  0  0
   20.5287  -14.6665   23.0507 N   0  0  0  0  0  0  0  0  0  0  0  0
   18.2455  -14.9245   23.4073 C   0  0  2  0  0  0  0  0  0  0  0  0
   18.4814  -15.7471   24.3957 C   0  0  1  0  0  0  0  0  0  0  0  0
   19.7635  -15.9066   24.9003 C   0  0  0  0  0  0  0  0  0  0  0  0
   17.3380  -16.4655   25.1936 N   0  0  0  0  0  0  0  0  0  0  0  0
   20.7882  -15.3307   24.1366 C   0  0  0  0  0  0  0  0  0  0  0  0
   16.8033  -14.6012   22.9352 C   0  0  0  0  0  0  0  0  0  0  0  0
  2  1  1  1
  1  3  1  0
  3  4  1  0
  5  4  1  6
  5  6  1  0
  6  7  1  0
  2  8  1  0
  2  9  1  0
  9  5  1  1
  7 10  1  0
  9 11  1  0
 11 10  1  6
  7 12  1  6
  8 13  1  1
  8 14  1  0
 14 15  1  0
 15 16  1  0
 15 17  1  1
 13 18  1  0
 16 18  1  0
 11 19  1  0
 14 19  1  6
M  END
$$$$
47
     RDKit          3D

 19 20  0  0  0  0  0  0  0  0999 V2000
   20.1702  -12.9575   20.7349 C   0  0  0  0  0  0  0  0  0  0  0  0
   19.0426  -13.4565   21.4208 C   0  0  0  0  0  0  0  0  0  0  0  0
   19.9671  -12.0228   19.6887 C   0  0  0  0  0  0  0  0  0  0  0  0
   18.5822  -11.7188   19.4320 C   0  0  0  0  0  0  0  0  0  0  0  0
   17.5276  -12.1102   20.1335 C   0  0  1  0  0  0  0  0  0  0  0  0
   16.1719  -11.7544   19.8518 C   0  0  0  0  0  0  0  0  0  0  0  0
   17.7570  -13.1217   21.1595 C   0  0  0  0  0  0  0  0  0  0  0  0
   15.5642  -11.9274   18.8204 O   0  0  0  0  0  0  0  0  0  0  0  0
   19.4290  -14.5687   22.6226 C   0  0  1  0  0  0  0  0  0  0  0  0
   15.3977  -11.1283   20.8887 N   0  0  0  0  0  0  0  0  0  0  0  0
   19.6755  -14.0547   23.8470 C   0  0  0  0  0  0  0  0  0  0  0  0
   14.0406  -10.7186   20.7153 C   0  0  0  0  0  0  0  0  0  0  0  0
   19.2201  -15.8849   22.4378 C   0  0  0  0  0  0  0  0  0  0  0  0
   19.9960  -14.9032   24.8265 C   0  0  2  0  0  0  0  0  0  0  0  0
   18.7841  -16.3767   21.1117 F   0  0  0  0  0  0  0  0  0  0  0  0
   19.8070  -16.3253   24.6592 C   0  0  0  0  0  0  0  0  0  0  0  0
   19.4444  -16.7577   23.4030 C   0  0  0  0  0  0  0  0  0  0  0  0
   13.2601  -10.8675   21.9774 C   0  0  0  0  0  0  0  0  0  0  0  0
   20.5705  -14.3486   26.3512 Cl  0  0  0  0  0  0  0  0  0  0  0  0
  1  2  1  0
  1  3  1  0
  3  4  1  0
  4  5  1  0
  5  6  1  6
  2  7  1  0
  5  7  1  0
  6  8  2  0
  9  2  1  1
  6 10  1  0
  9 11  1  0
 10 12  1  0
  9 13  1  0
 11 14  1  0
 13 15  1  0
 14 16  1  0
 13 17  1  0
 16 17  1  0
 12 18  1  0
 14 19  1  1
M  END
$$$$
48
     RDKit          3D

 19 20  0  0  0  0  0  0  0  0999 V2000
   20.3470  -12.1501   19.8558 C   0  0  0  0  0  0  0  0  0  0  0  0
   19.8317  -12.8515   20.8502 C   0  0  2  0  0  0  0  0  0  0  0  0
   20.4231  -13.7341   21.6259 N   0  0  0  0  0  0  0  0  0  0  0  0
   18.3790  -13.2330   20.8422 C   0  0  2  0  0  0  0  0  0  0  0  0
   19.5619  -14.3285   22.4854 N   0  0  0  0  0  0  0  0  0  0  0  0
   17.3294  -12.5449   20.1773 C   0  0  0  0  0  0  0  0  0  0  0  0
   18.2565  -14.0336   21.9943 N   0  0  0  0  0  0  0  0  0  0  0  0
   17.1011  -14.6713   22.6113 C   0  0  0  0  0  0  0  0  0  0  0  0
   17.2222  -15.5069   23.5158 N   0  0  0  0  0  0  0  0  0  0  0  0
   17.4360  -16.8497   23.3583 C   0  0  0  0  0  0  0  0  0  0  0  0
   15.9355  -14.5638   21.9785 O   0  0  0  0  0  0  0  0  0  0  0  0
   17.2480  -15.0941   24.8970 C   0  0  0  0  0  0  0  0  0  0  0  0
   17.8069  -17.5107   24.5048 C   0  0  0  0  0  0  0  0  0  0  0  0
   17.7910  -16.3073   25.5557 C   0  0  0  0  0  0  0  0  0  0  0  0
   15.9181  -12.6597   20.3548 N   0  0  0  0  0  0  0  0  0  0  0  0
   15.0558  -11.7420   20.6340 C   0  0  0  0  0  0  0  0  0  0  0  0
   17.7195  -11.5495   19.3343 O   0  0  0  0  0  0  0  0  0  0  0  0
   14.1708  -11.3927   19.7887 C   0  0  0  0  0  0  0  0  0  0  0  0
   14.2748  -12.1684   21.9293 C   0  0  0  0  0  0  0  0  0  0  0  0
  2  1  1  6
  2  3  1  0
  2  4  1  0
  3  5  1  0
  4  6  1  1
  4  7  1  0
  5  7  1  0
  7  8  1  0
  8  9  1  0
  9 10  1  0
  8 11  2  0
  9 12  1  0
 10 13  1  0
 12 14  1  0
 13 14  1  0
  6 15  1  0
 15 16  1  0
  6 17  2  0
 16 18  1  0
 16 19  1  0
M  END
$$$$
49
     RDKit          3D

 19 22  0  0  0  0  0  0  0  0999 V2000
   20.2497  -11.7989   19.2731 C   0  0  0  0  0  0  0  0  0  0  0  0
   20.1965  -12.4320   20.4769 C   0  0  0  0  0  0  0  0  0  0  0  0
   18.9673  -12.7485   21.0767 C   0  0  1  0  0  0  0  0  0  0  0  0
   18.9773  -11.4173   18.9521 N   0  0  0  0  0  0  0  0  0  0  0  0
   17.7264  -12.3631   20.5816 C   0  0  2  0  0  0  0  0  0  0  0  0
   18.6912  -13.8291   22.2049 C   0  0  2  0  0  0  0  0  0  0  0  0
   17.7923  -11.5845   19.4217 C   0  0  0  0  0  0  0  0  0  0  0  0
   16.4277  -12.6796   21.2695 C   0  0  2  0  0  0  0  0  0  0  0  0
   17.5182  -14.0662   22.7322 C   0  0  2  0  0  0  0  0  0  0  0  0
   17.5463  -15.0605   23.7799 N   0  0  0  0  0  0  0  0  0  0  0  0
   16.3908  -13.5264   22.2665 N   0  0  0  0  0  0  0  0  0  0  0  0
   15.1807  -12.1524   20.7632 C   0  0  0  0  0  0  0  0  0  0  0  0
   14.5872  -12.4449   19.7386 C   0  0  0  0  0  0  0  0  0  0  0  0
   13.3016  -11.9054   19.4569 N   0  0  0  0  0  0  0  0  0  0  0  0
   13.0317  -11.0200   20.5397 C   0  0  0  0  0  0  0  0  0  0  0  0
   18.6483  -15.5928   24.1608 C   0  0  0  0  0  0  0  0  0  0  0  0
   14.6268  -11.0931   21.6899 S   0  0  0  0  0  0  0  0  0  0  0  0
   20.0872  -14.4816   22.6704 C   0  0  0  0  0  0  0  0  0  0  0  0
   19.8795  -15.2850   23.7484 C   0  0  0  0  0  0  0  0  0  0  0  0
  1  2  1  0
  3  2  1  6
  1  4  1  0
  3  5  1  0
  3  6  1  0
  4  7  1  0
  5  7  1  1
  5  8  1  0
  6  9  1  0
  9 10  1  6
  8 11  1  0
  9 11  1  0
  8 12  1  6
 12 13  1  0
 13 14  1  0
 14 15  1  0
 10 16  1  0
 12 17  1  0
 15 17  1  0
  6 18  1  1
 16 19  1  0
 18 19  1  0
M  END
$$$$
5
     RDKit          3D

 11 12  0  0  0  0  0  0  0  0999 V2000
   21.5628  -13.3263   25.6933 C   0  0  0  0  0  0  0  0  0  0  0  0
   21.9150  -14.0820   24.7770 C   0  0  0  0  0  0  0  0  0  0  0  0
   20.2263  -13.5918   26.2068 C   0  0  0  0  0  0  0  0  0  0  0  0
   19.4920  -14.6371   25.5396 C   0  0  0  0  0  0  0  0  0  0  0  0
   20.1443  -15.1984   24.4782 C   0  0  0  0  0  0  0  0  0  0  0  0
   21.2725  -14.9922   24.0250 C   0  0  0  0  0  0  0  0  0  0  0  0
   19.1251  -16.4831   23.8391 C   0  0  1  0  0  0  0  0  0  0  0  0
   17.8327  -16.1107   23.8900 N   0  0  0  0  0  0  0  0  0  0  0  0
   19.4775  -16.6965   22.4615 C   0  0  0  0  0  0  0  0  0  0  0  0
   17.0513  -16.8337   22.9845 C   0  0  0  0  0  0  0  0  0  0  0  0
   18.1195  -17.1075   21.9184 C   0  0  0  0  0  0  0  0  0  0  0  0
  1  2  1  0
  1  3  1  0
  3  4  1  0
  4  5  1  0
  2  6  1  0
  5  6  1  0
  7  5  1  6
  7  8  1  0
  7  9  1  0
  8 10  1  0
  9 11  1  0
 10 11  1  0
M  END
$$$$
50
     RDKit          3D

 19 21  0  0  0  0  0  0  0  0999 V2000
   21.3798  -13.0882   26.4702 C   0  0  0  0  0  0  0  0  0  0  0  0
   20.7808  -13.7332   25.4153 C   0  0  2  0  0  0  0  0  0  0  0  0
   19.6965  -14.7349   25.6834 C   0  0  0  0  0  0  0  0  0  0  0  0
   19.2569  -15.4684   24.7681 N   0  0  0  0  0  0  0  0  0  0  0  0
   18.0942  -16.3467   24.8593 C   0  0  0  0  0  0  0  0  0  0  0  0
   19.7438  -15.1777   23.4215 C   0  0  2  0  0  0  0  0  0  0  0  0
   19.2730  -15.6509   22.2465 C   0  0  2  0  0  0  0  0  0  0  0  0
   21.0497  -14.3955   23.5437 S   0  0  0  0  0  0  0  0  0  0  0  0
   19.5781  -15.1147   21.0737 C   0  0  0  0  0  0  0  0  0  0  0  0
   18.1776  -16.6273   22.2484 C   0  0  0  0  0  0  0  0  0  0  0  0
   17.6165  -16.9350   23.6420 C   0  0  0  0  0  0  0  0  0  0  0  0
   19.1986  -13.6488   20.7595 N   0  0  0  0  0  0  0  0  0  0  0  0
   18.0343  -13.1416   21.1968 C   0  0  0  0  0  0  0  0  0  0  0  0
   17.0950  -13.8017   21.7873 C   0  0  0  0  0  0  0  0  0  0  0  0
   20.0650  -12.7629   20.0647 C   0  0  0  0  0  0  0  0  0  0  0  0
   19.7442  -11.5777   19.8665 C   0  0  0  0  0  0  0  0  0  0  0  0
   17.8556  -11.6945   20.8463 C   0  0  0  0  0  0  0  0  0  0  0  0
   18.6418  -11.0158   20.2547 N   0  0  0  0  0  0  0  0  0  0  0  0
   17.5891  -16.6611   25.9694 O   0  0  0  0  0  0  0  0  0  0  0  0
  2  1  1  1
  2  3  1  0
  3  4  1  0
  4  5  1  0
  4  6  1  0
  6  7  1  0
  2  8  1  0
  6  8  1  1
  7  9  1  6
  7 10  1  0
  5 11  1  0
 10 11  1  0
  9 12  1  0
 12 13  1  0
 13 14  2  0
 12 15  1  0
 15 16  1  0
 13 17  1  0
 16 18  1  0
 17 18  1  0
  5 19  2  0
M  END
$$$$
51
     RDKit          3D

 19 21  0  0  0  0  0  0  0  0999 V2000
   20.1885  -12.8464   20.6593 C   0  0  0  0  0  0  0  0  0  0  0  0
   19.8070  -11.9017   19.7794 C   0  0  0  0  0  0  0  0  0  0  0  0
   19.0681  -13.2738   21.5665 C   0  0  1  0  0  0  0  0  0  0  0  0
   18.3123  -11.8377   19.6581 C   0  0  0  0  0  0  0  0  0  0  0  0
   17.8863  -12.6873   20.8199 C   0  0  2  0  0  0  0  0  0  0  0  0
   16.4339  -12.8276   21.2078 C   0  0  0  0  0  0  0  0  0  0  0  0
   15.4755  -12.0298   20.7067 C   0  0  0  0  0  0  0  0  0  0  0  0
   14.1050  -12.1117   21.1088 C   0  0  0  0  0  0  0  0  0  0  0  0
   18.9214  -14.3804   22.3537 C   0  0  0  0  0  0  0  0  0  0  0  0
   13.6485  -12.6264   21.9522 O   0  0  0  0  0  0  0  0  0  0  0  0
   18.3700  -15.4963   22.1185 C   0  0  0  0  0  0  0  0  0  0  0  0
   13.2235  -11.4766   20.2064 O   0  0  0  0  0  0  0  0  0  0  0  0
   19.4361  -14.0768   23.8211 C   0  0  0  0  0  0  0  0  0  0  0  0
   18.1550  -16.5141   23.2591 C   0  0  0  0  0  0  0  0  0  0  0  0
   20.5093  -13.3659   24.1532 O   0  0  0  0  0  0  0  0  0  0  0  0
   18.3816  -16.2077   24.4129 N   0  0  0  0  0  0  0  0  0  0  0  0
   19.1419  -15.1429   24.8073 C   0  0  0  0  0  0  0  0  0  0  0  0
   19.6618  -14.7008   26.0427 C   0  0  0  0  0  0  0  0  0  0  0  0
   20.7691  -13.5694   25.4865 C   0  0  0  0  0  0  0  0  0  0  0  0
  1  2  1  0
  1  3  1  0
  2  4  1  0
  3  5  1  0
  4  5  1  0
  5  6  1  1
  6  7  1  0
  7  8  1  0
  3  9  1  6
  8 10  2  0
  9 11  1  0
  8 12  1  0
  9 13  2  0
 11 14  2  0
 13 15  1  0
 14 16  1  0
 13 17  1  0
 16 17  2  0
 17 18  1  0
 15 19  1  0
 18 19  1  0
M  END
$$$$
52
     RDKit          3D

 19 21  0  0  0  0  0  0  0  0999 V2000
   20.3722  -12.8727   20.5736 C   0  0  0  0  0  0  0  0  0  0  0  0
   19.8961  -11.8796   19.7834 C   0  0  0  0  0  0  0  0  0  0  0  0
   19.4132  -13.5120   21.4506 C   0  0  2  0  0  0  0  0  0  0  0  0
   18.0378  -13.0137   21.4314 C   0  0  1  0  0  0  0  0  0  0  0  0
   17.8407  -12.0857   20.4950 C   0  0  0  0  0  0  0  0  0  0  0  0
   19.9007  -14.5402   22.4549 C   0  0  0  0  0  0  0  0  0  0  0  0
   18.6484  -11.4913   19.6817 N   0  0  0  0  0  0  0  0  0  0  0  0
   16.9654  -13.6764   22.2822 C   0  0  0  0  0  0  0  0  0  0  0  0
   16.2850  -11.9245   20.6311 C   0  0  0  0  0  0  0  0  0  0  0  0
   15.8604  -12.9077   21.6359 N   0  0  0  0  0  0  0  0  0  0  0  0
   14.4380  -13.0250   21.8997 C   0  0  0  0  0  0  0  0  0  0  0  0
   15.3825  -11.0977   19.9920 C   0  0  0  0  0  0  0  0  0  0  0  0
   20.3766  -14.2309   23.7006 C   0  0  0  0  0  0  0  0  0  0  0  0
   14.1168  -11.3961   20.2574 C   0  0  0  0  0  0  0  0  0  0  0  0
   13.6431  -12.2017   21.1707 C   0  0  0  0  0  0  0  0  0  0  0  0
   21.4881  -13.8311   23.9072 O   0  0  0  0  0  0  0  0  0  0  0  0
   19.5740  -14.4557   24.8439 N   0  0  0  0  0  0  0  0  0  0  0  0
   18.4317  -15.1999   24.9290 C   0  0  0  0  0  0  0  0  0  0  0  0
   20.3235  -13.8610   26.0716 C   0  0  0  0  0  0  0  0  0  0  0  0
  1  2  1  0
  1  3  1  0
  3  4  1  0
  4  5  1  0
  3  6  1  1
  2  7  1  0
  5  7  1  0
  4  8  1  6
  5  9  1  0
  8 10  1  0
  9 10  1  0
 10 11  1  0
  9 12  1  0
  6 13  1  0
 12 14  1  0
 11 15  1  0
 14 15  1  0
 13 16  2  0
 13 17  1  0
 17 18  1  0
 17 19  1  0
M  END
$$$$
53
     RDKit          3D

 19 21  0  0  0  0  0  0  0  0999 V2000
   21.2257  -12.9695   26.2331 C   0  0  0  0  0  0  0  0  0  0  0  0
   20.7202  -13.7781   25.3481 C   0  0  2  0  0  0  0  0  0  0  0  0
   20.8162  -13.5632   23.9252 O   0  0  0  0  0  0  0  0  0  0  0  0
   20.2846  -14.4140   23.0210 C   0  0  2  0  0  0  0  0  0  0  0  0
   19.9485  -13.7559   21.7732 C   0  0  1  0  0  0  0  0  0  0  0  0
   19.0143  -15.1105   23.5648 C   0  0  1  0  0  0  0  0  0  0  0  0
   18.2304  -15.8757   22.7577 O   0  0  0  0  0  0  0  0  0  0  0  0
   18.9077  -13.1392   21.4524 N   0  0  0  0  0  0  0  0  0  0  0  0
   19.6119  -14.8066   25.5801 C   0  0  0  0  0  0  0  0  0  0  0  0
   17.1682  -16.4350   23.3601 C   0  0  0  0  0  0  0  0  0  0  0  0
   18.7846  -15.2629   24.8885 N   0  0  0  0  0  0  0  0  0  0  0  0
   17.5901  -16.3541   24.8330 C   0  0  0  0  0  0  0  0  0  0  0  0
   18.7780  -12.3974   20.3479 C   0  0  2  0  0  0  0  0  0  0  0  0
   19.9008  -12.0051   19.6749 C   0  0  0  0  0  0  0  0  0  0  0  0
   17.3801  -12.0619   20.0909 C   0  0  0  0  0  0  0  0  0  0  0  0
   21.0565  -13.2659   21.0349 N   0  0  0  0  0  0  0  0  0  0  0  0
   16.8294  -10.9460   20.3930 O   0  0  0  0  0  0  0  0  0  0  0  0
   16.4935  -12.8881   19.4680 O   0  0  0  0  0  0  0  0  0  0  0  0
   21.1386  -12.5374   20.1233 C   0  0  0  0  0  0  0  0  0  0  0  0
  2  1  1  1
  2  3  1  0
  4  3  1  1
  4  5  1  0
  4  6  1  0
  6  7  1  6
  5  8  1  1
  2  9  1  0
  7 10  1  0
  6 11  1  0
  9 11  1  0
 10 12  1  0
 11 12  1  0
  8 13  1  0
 13 14  1  0
 13 15  1  1
  5 16  1  0
 15 17  1  0
 15 18  2  0
 14 19  1  0
 16 19  1  0
M  END
$$$$
54
     RDKit          3D

 19 21  0  0  0  0  0  0  0  0999 V2000
   20.1181  -13.1118   20.9806 C   0  0  0  0  0  0  0  0  0  0  0  0
   19.8419  -12.1449   20.0874 C   0  0  0  0  0  0  0  0  0  0  0  0
   20.8455  -11.6370   19.2261 F   0  0  0  0  0  0  0  0  0  0  0  0
   19.0965  -13.6757   21.7881 C   0  0  2  0  0  0  0  0  0  0  0  0
   18.5265  -11.6180   19.9501 C   0  0  0  0  0  0  0  0  0  0  0  0
   19.3075  -14.7217   22.7517 C   0  0  1  0  0  0  0  0  0  0  0  0
   17.4523  -12.2546   20.7102 C   0  0  2  0  0  0  0  0  0  0  0  0
   16.0869  -11.7809   20.6226 N   0  0  0  0  0  0  0  0  0  0  0  0
   15.1266  -12.4099   21.2020 C   0  0  1  0  0  0  0  0  0  0  0  0
   17.6575  -13.2834   21.6134 C   0  0  1  0  0  0  0  0  0  0  0  0
   15.4284  -13.5089   22.0106 N   0  0  0  0  0  0  0  0  0  0  0  0
   16.6542  -13.9408   22.1902 C   0  0  0  0  0  0  0  0  0  0  0  0
   13.7396  -11.9420   21.0771 C   0  0  0  0  0  0  0  0  0  0  0  0
   17.1906  -14.9066   22.8694 N   0  0  0  0  0  0  0  0  0  0  0  0
   20.6898  -15.0075   23.1276 C   0  0  0  0  0  0  0  0  0  0  0  0
   18.2530  -15.1769   23.4185 C   0  0  0  0  0  0  0  0  0  0  0  0
   21.0702  -14.6005   24.5529 C   0  0  0  0  0  0  0  0  0  0  0  0
   20.6943  -13.3517   25.1166 C   0  0  0  0  0  0  0  0  0  0  0  0
   22.5224  -14.6269   24.8664 C   0  0  0  0  0  0  0  0  0  0  0  0
  1  2  1  0
  2  3  1  0
  4  1  1  6
  2  5  1  0
  4  6  1  0
  7  5  1  1
  7  8  1  0
  8  9  1  0
  4 10  1  0
  7 10  1  0
  9 11  1  0
 10 12  1  6
 11 12  1  0
  9 13  1  1
 12 14  1  0
  6 15  1  1
  6 16  1  0
 14 16  1  0
 15 17  1  0
 17 18  1  0
 17 19  1  0
M  END
$$$$
55
     RDKit          3D

 19 22  0  0  0  0  0  0  0  0999 V2000
   20.1702  -12.9575   20.7349 C   0  0  0  0  0  0  0  0  0  0  0  0
   19.0426  -13.4565   21.4208 C   0  0  1  0  0  0  0  0  0  0  0  0
   19.9671  -12.0228   19.6887 C   0  0  0  0  0  0  0  0  0  0  0  0
   18.5822  -11.7188   19.4320 C   0  0  0  0  0  0  0  0  0  0  0  0
   17.5276  -12.1102   20.1335 C   0  0  1  0  0  0  0  0  0  0  0  0
   16.1719  -11.7544   19.8518 C   0  0  0  0  0  0  0  0  0  0  0  0
   15.2292  -11.7182   20.8791 C   0  0  2  0  0  0  0  0  0  0  0  0
   19.3041  -14.3936   22.5875 C   0  0  1  0  0  0  0  0  0  0  0  0
   17.7603  -13.1331   21.1710 C   0  0  2  0  0  0  0  0  0  0  0  0
   15.3401  -12.7424   21.9780 C   0  0  0  0  0  0  0  0  0  0  0  0
   16.6958  -13.3730   22.1899 C   0  0  1  0  0  0  0  0  0  0  0  0
   13.7824  -11.4725   20.5008 C   0  0  0  0  0  0  0  0  0  0  0  0
   20.5287  -14.6665   23.0507 N   0  0  0  0  0  0  0  0  0  0  0  0
   18.2455  -14.9245   23.4073 C   0  0  0  0  0  0  0  0  0  0  0  0
   18.4814  -15.7471   24.3957 C   0  0  1  0  0  0  0  0  0  0  0  0
   19.7635  -15.9066   24.9003 C   0  0  0  0  0  0  0  0  0  0  0  0
   17.3380  -16.4655   25.1936 N   0  0  0  0  0  0  0  0  0  0  0  0
   20.7882  -15.3307   24.1366 C   0  0  0  0  0  0  0  0  0  0  0  0
   16.7783  -14.4575   23.0870 N   0  0  0  0  0  0  0  0  0  0  0  0
  2  1  1  1
  1  3  1  0
  3  4  1  0
  5  4  1  6
  5  6  1  0
  6  7  1  0
  2  8  1  0
  2  9  1  0
  9  5  1  1
  7 10  1  0
  9 11  1  0
 11 10  1  6
  7 12  1  6
  8 13  1  1
  8 14  1  0
 14 15  1  0
 15 16  1  0
 15 17  1  1
 13 18  1  0
 16 18  1  0
 11 19  1  0
 14 19  1  0
M  END
$$$$
56
     RDKit          3D

 20 23  0  0  0  0  0  0  0  0999 V2000
   20.1096  -12.1790   19.7698 C   0  0  0  0  0  0  0  0  0  0  0  0
   18.8964  -11.7678   19.4847 C   0  0  0  0  0  0  0  0  0  0  0  0
   17.9814  -12.3717   20.5224 C   0  0  0  0  0  0  0  0  0  0  0  0
   20.5540  -13.0047   20.7245 C   0  0  0  0  0  0  0  0  0  0  0  0
   18.2987  -13.1701   21.5413 C   0  0  0  0  0  0  0  0  0  0  0  0
   16.3231  -12.1644   20.6503 C   0  0  1  0  0  0  0  0  0  0  0  0
   15.8280  -11.0164   20.1393 N   0  0  0  0  0  0  0  0  0  0  0  0
   15.3870  -13.0674   20.8392 N   0  0  0  0  0  0  0  0  0  0  0  0
   17.3667  -13.6754   22.5285 O   0  0  0  0  0  0  0  0  0  0  0  0
   14.5635  -10.7994   20.2283 C   0  0  0  0  0  0  0  0  0  0  0  0
   16.9450  -14.8710   22.4435 C   0  0  2  0  0  0  0  0  0  0  0  0
   19.6620  -13.5498   21.7498 C   0  0  0  0  0  0  0  0  0  0  0  0
   15.8923  -15.3051   21.8032 C   0  0  0  0  0  0  0  0  0  0  0  0
   15.3043  -14.6061   20.9212 C   0  0  0  0  0  0  0  0  0  0  0  0
   14.0454  -12.1307   20.6500 C   0  0  0  0  0  0  0  0  0  0  0  0
   17.3113  -15.6851   23.6675 N   0  0  0  0  0  0  0  0  0  0  0  0
   17.4673  -17.0173   23.5397 C   0  0  0  0  0  0  0  0  0  0  0  0
   18.4038  -15.0766   24.5464 C   0  0  0  0  0  0  0  0  0  0  0  0
   18.6471  -15.9504   25.6214 C   0  0  0  0  0  0  0  0  0  0  0  0
   18.1733  -17.3901   24.9451 C   0  0  0  0  0  0  0  0  0  0  0  0
  1  2  1  0
  2  3  1  0
  1  4  1  0
  3  5  1  0
  3  6  1  0
  6  7  1  6
  6  8  1  0
  5  9  1  0
  7 10  1  0
  9 11  1  0
  4 12  1  0
  5 12  1  0
 11 13  1  0
  8 14  1  0
 13 14  1  0
  8 15  1  0
 10 15  1  0
 11 16  1  1
 16 17  1  0
 16 18  1  0
 18 19  1  0
 17 20  1  0
 19 20  1  0
M  END
$$$$
57
     RDKit          3D

 20 21  0  0  0  0  0  0  0  0999 V2000
   20.1702  -12.9575   20.7349 C   0  0  0  0  0  0  0  0  0  0  0  0
   19.0426  -13.4565   21.4208 C   0  0  0  0  0  0  0  0  0  0  0  0
   19.9671  -12.0228   19.6887 C   0  0  0  0  0  0  0  0  0  0  0  0
   18.5822  -11.7188   19.4320 C   0  0  0  0  0  0  0  0  0  0  0  0
   17.5276  -12.1102   20.1335 C   0  0  1  0  0  0  0  0  0  0  0  0
   16.1719  -11.7544   19.8518 C   0  0  0  0  0  0  0  0  0  0  0  0
   17.7570  -13.1217   21.1595 C   0  0  0  0  0  0  0  0  0  0  0  0
   15.5642  -11.9274   18.8204 O   0  0  0  0  0  0  0  0  0  0  0  0
   19.4290  -14.5687   22.6226 C   0  0  1  0  0  0  0  0  0  0  0  0
   15.3977  -11.1283   20.8887 N   0  0  0  0  0  0  0  0  0  0  0  0
   19.6755  -14.0547   23.8470 C   0  0  0  0  0  0  0  0  0  0  0  0
   14.0406  -10.7186   20.7153 C   0  0  0  0  0  0  0  0  0  0  0  0
   19.2201  -15.8849   22.4378 C   0  0  0  0  0  0  0  0  0  0  0  0
   19.9960  -14.9032   24.8265 C   0  0  2  0  0  0  0  0  0  0  0  0
   18.7841  -16.3767   21.1117 F   0  0  0  0  0  0  0  0  0  0  0  0
   19.8070  -16.3253   24.6592 C   0  0  0  0  0  0  0  0  0  0  0  0
   19.3365  -16.8074   23.3445 C   0  0  0  0  0  0  0  0  0  0  0  0
   20.4221  -14.3604   26.1600 C   0  0  0  0  0  0  0  0  0  0  0  0
   13.1200  -11.4182   21.6577 C   0  0  0  0  0  0  0  0  0  0  0  0
   21.1159  -13.2522   26.2611 C   0  0  0  0  0  0  0  0  0  0  0  0
  1  2  1  0
  1  3  1  0
  3  4  1  0
  4  5  1  0
  5  6  1  6
  2  7  1  0
  5  7  1  0
  6  8  2  0
  9  2  1  1
  6 10  1  0
  9 11  1  0
 10 12  1  0
  9 13  1  0
 11 14  1  0
 13 15  1  0
 14 16  1  0
 13 17  1  0
 16 17  1  0
 14 18  1  1
 12 19  1  0
 18 20  1  0
M  END
$$$$
58
     RDKit          3D

 20 23  0  0  0  0  0  0  0  0999 V2000
   20.1096  -12.1790   19.7698 C   0  0  0  0  0  0  0  0  0  0  0  0
   18.8964  -11.7678   19.4847 C   0  0  0  0  0  0  0  0  0  0  0  0
   17.9814  -12.3717   20.5224 C   0  0  1  0  0  0  0  0  0  0  0  0
   20.5540  -13.0047   20.7245 C   0  0  0  0  0  0  0  0  0  0  0  0
   18.2987  -13.1701   21.5413 C   0  0  2  0  0  0  0  0  0  0  0  0
   16.4549  -11.9251   20.4636 C   0  0  2  0  0  0  0  0  0  0  0  0
   19.6516  -13.5275   21.6317 C   0  0  2  0  0  0  0  0  0  0  0  0
   17.1204  -13.5851   22.2228 C   0  0  2  0  0  0  0  0  0  0  0  0
   19.9542  -14.3936   22.7980 C   0  0  0  0  0  0  0  0  0  0  0  0
   17.4108  -14.7196   23.1443 N   0  0  0  0  0  0  0  0  0  0  0  0
   16.0914  -13.0073   21.6386 C   0  0  1  0  0  0  0  0  0  0  0  0
   14.6561  -13.0981   22.0169 N   0  0  0  0  0  0  0  0  0  0  0  0
   15.4983  -11.2603   19.8834 C   0  0  0  0  0  0  0  0  0  0  0  0
   18.7140  -14.9388   23.4857 C   0  0  1  0  0  0  0  0  0  0  0  0
   13.7984  -12.3708   21.2789 C   0  0  0  0  0  0  0  0  0  0  0  0
   14.1699  -11.5183   20.2630 C   0  0  0  0  0  0  0  0  0  0  0  0
   18.9058  -15.9577   24.6271 C   0  0  0  0  0  0  0  0  0  0  0  0
   19.6769  -15.4261   25.7127 C   0  0  0  0  0  0  0  0  0  0  0  0
   20.3120  -14.1282   25.7151 C   0  0  0  0  0  0  0  0  0  0  0  0
   21.5106  -13.8394   26.2629 C   0  0  0  0  0  0  0  0  0  0  0  0
  1  2  1  0
  3  2  1  1
  1  4  1  0
  3  5  1  0
  3  6  1  0
  7  4  1  1
  5  7  1  6
  5  8  1  0
  7  9  1  0
  8 10  1  6
  6 11  1  0
  8 11  1  0
 11 12  1  1
  6 13  1  6
  9 14  1  0
 10 14  1  0
 12 15  1  0
 13 16  1  0
 15 16  1  0
 14 17  1  6
 17 18  1  0
 18 19  1  0
 19 20  1  0
M  END
$$$$
59
     RDKit          3D

 20 23  0  0  0  0  0  0  0  0999 V2000
   20.2497  -11.7989   19.2731 C   0  0  0  0  0  0  0  0  0  0  0  0
   20.1965  -12.4320   20.4769 C   0  0  0  0  0  0  0  0  0  0  0  0
   18.9673  -12.7485   21.0767 C   0  0  1  0  0  0  0  0  0  0  0  0
   18.9773  -11.4173   18.9521 N   0  0  0  0  0  0  0  0  0  0  0  0
   17.7264  -12.3631   20.5816 C   0  0  2  0  0  0  0  0  0  0  0  0
   18.6912  -13.8291   22.2049 C   0  0  2  0  0  0  0  0  0  0  0  0
   17.7923  -11.5845   19.4217 C   0  0  0  0  0  0  0  0  0  0  0  0
   16.4277  -12.6796   21.2695 C   0  0  2  0  0  0  0  0  0  0  0  0
   17.5182  -14.0662   22.7322 C   0  0  2  0  0  0  0  0  0  0  0  0
   17.5463  -15.0605   23.7799 N   0  0  0  0  0  0  0  0  0  0  0  0
   16.3908  -13.5264   22.2665 N   0  0  0  0  0  0  0  0  0  0  0  0
   15.1807  -12.1524   20.7632 C   0  0  0  0  0  0  0  0  0  0  0  0
   14.5872  -12.4449   19.7386 C   0  0  0  0  0  0  0  0  0  0  0  0
   13.3016  -11.9054   19.4569 N   0  0  0  0  0  0  0  0  0  0  0  0
   13.0317  -11.0200   20.5397 C   0  0  0  0  0  0  0  0  0  0  0  0
   18.6483  -15.5928   24.1608 C   0  0  1  0  0  0  0  0  0  0  0  0
   14.6268  -11.0931   21.6899 S   0  0  0  0  0  0  0  0  0  0  0  0
   20.0872  -14.4816   22.6704 C   0  0  0  0  0  0  0  0  0  0  0  0
   19.7521  -15.2501   23.7553 N   0  0  0  0  0  0  0  0  0  0  0  0
   18.5061  -16.6418   25.4049 C   0  0  0  0  0  0  0  0  0  0  0  0
  1  2  1  0
  3  2  1  6
  1  4  1  0
  3  5  1  0
  3  6  1  0
  4  7  1  0
  5  7  1  1
  5  8  1  0
  6  9  1  0
  9 10  1  6
  8 11  1  0
  9 11  1  0
  8 12  1  6
 12 13  1  0
 13 14  1  0
 14 15  1  0
 10 16  1  0
 12 17  1  0
 15 17  1  0
  6 18  1  1
 16 19  1  0
 18 19  1  0
 16 20  1  1
M  END
$$$$
6
     RDKit          3D

 11 11  0  0  0  0  0  0  0  0999 V2000
   21.5628  -13.3263   25.6933 C   0  0  0  0  0  0  0  0  0  0  0  0
   20.3055  -13.6259   25.6650 O   0  0  0  0  0  0  0  0  0  0  0  0
   19.9324  -14.8408   25.0714 C   0  0  1  0  0  0  0  0  0  0  0  0
   18.8049  -15.4492   25.5220 C   0  0  0  0  0  0  0  0  0  0  0  0
   18.2470  -16.5413   24.7147 C   0  0  1  0  0  0  0  0  0  0  0  0
   16.9772  -17.1844   25.1513 O   0  0  0  0  0  0  0  0  0  0  0  0
   18.5804  -16.8580   23.3616 C   0  0  1  0  0  0  0  0  0  0  0  0
   19.9342  -14.8732   23.4694 C   0  0  0  0  0  0  0  0  0  0  0  0
   17.9691  -17.7569   22.5425 O   0  0  0  0  0  0  0  0  0  0  0  0
   19.4891  -15.8775   22.7458 C   0  0  0  0  0  0  0  0  0  0  0  0
   16.6498  -17.6985   22.2946 C   0  0  0  0  0  0  0  0  0  0  0  0
  1  2  1  0
  3  2  1  6
  3  4  1  0
  4  5  1  0
  5  6  1  6
  5  7  1  0
  3  8  1  0
  7  9  1  6
  7 10  1  0
  8 10  1  0
  9 11  1  0
M  END
$$$$
60
     RDKit          3D

 20 21  0  0  0  0  0  0  0  0999 V2000
   20.3722  -12.8727   20.5736 C   0  0  0  0  0  0  0  0  0  0  0  0
   19.8961  -11.8796   19.7834 C   0  0  0  0  0  0  0  0  0  0  0  0
   19.4132  -13.5120   21.4506 C   0  0  2  0  0  0  0  0  0  0  0  0
   18.0378  -13.0137   21.4314 C   0  0  0  0  0  0  0  0  0  0  0  0
   17.8407  -12.0857   20.4950 C   0  0  0  0  0  0  0  0  0  0  0  0
   19.9007  -14.5402   22.4549 C   0  0  0  0  0  0  0  0  0  0  0  0
   18.6484  -11.4913   19.6817 N   0  0  0  0  0  0  0  0  0  0  0  0
   16.2131  -11.6062   20.4634 C   0  0  0  0  0  0  0  0  0  0  0  0
   15.3495  -12.5492   20.0495 N   0  0  0  0  0  0  0  0  0  0  0  0
   20.1658  -15.6482   22.0327 O   0  0  0  0  0  0  0  0  0  0  0  0
   13.9977  -12.1661   20.2265 C   0  0  0  0  0  0  0  0  0  0  0  0
   13.7375  -11.5648   21.6044 C   0  0  0  0  0  0  0  0  0  0  0  0
   12.6363  -11.9662   22.3472 C   0  0  0  0  0  0  0  0  0  0  0  0
   12.1550  -13.1531   22.3006 C   0  0  0  0  0  0  0  0  0  0  0  0
   13.0799  -13.1948   19.7515 C   0  0  0  0  0  0  0  0  0  0  0  0
   19.8963  -14.2719   23.8024 N   0  0  0  0  0  0  0  0  0  0  0  0
   19.9084  -15.2495   24.8143 C   0  0  0  0  0  0  0  0  0  0  0  0
   12.0264  -13.6048   20.7146 C   0  0  0  0  0  0  0  0  0  0  0  0
   20.4579  -14.6416   26.0605 C   0  0  0  0  0  0  0  0  0  0  0  0
   20.9815  -13.3687   25.9560 C   0  0  0  0  0  0  0  0  0  0  0  0
  1  2  1  0
  1  3  1  0
  3  4  1  0
  4  5  1  0
  3  6  1  1
  2  7  1  0
  5  7  1  0
  5  8  1  0
  8  9  1  0
  6 10  2  0
  9 11  1  0
 11 12  1  0
 12 13  1  0
 13 14  1  0
 11 15  1  0
  6 16  1  0
 16 17  1  0
 14 18  1  0
 15 18  1  0
 17 19  1  0
 19 20  1  0
M  END
$$$$
61
     RDKit          3D

 20 21  0  0  0  0  0  0  0  0999 V2000
   20.1885  -12.8464   20.6593 C   0  0  0  0  0  0  0  0  0  0  0  0
   19.8070  -11.9017   19.7794 C   0  0  0  0  0  0  0  0  0  0  0  0
   19.0681  -13.2738   21.5665 C   0  0  1  0  0  0  0  0  0  0  0  0
   18.3123  -11.8377   19.6581 C   0  0  0  0  0  0  0  0  0  0  0  0
   17.8863  -12.6873   20.8199 C   0  0  2  0  0  0  0  0  0  0  0  0
   16.4339  -12.8276   21.2078 C   0  0  0  0  0  0  0  0  0  0  0  0
   15.4755  -12.0298   20.7067 C   0  0  0  0  0  0  0  0  0  0  0  0
   14.1050  -12.1117   21.1088 C   0  0  0  0  0  0  0  0  0  0  0  0
   18.9214  -14.3804   22.3537 C   0  0  0  0  0  0  0  0  0  0  0  0
   13.6485  -12.6264   21.9522 O   0  0  0  0  0  0  0  0  0  0  0  0
   18.3700  -15.4963   22.1185 C   0  0  0  0  0  0  0  0  0  0  0  0
   19.7464  -14.2669   23.6846 C   0  0  0  0  0  0  0  0  0  0  0  0
   13.2254  -11.4499   20.2467 O   0  0  0  0  0  0  0  0  0  0  0  0
   18.1179  -16.5677   23.1640 C   0  0  0  0  0  0  0  0  0  0  0  0
   19.5653  -15.1776   24.7051 C   0  0  1  0  0  0  0  0  0  0  0  0
   18.8151  -16.3491   24.4061 C   0  0  0  0  0  0  0  0  0  0  0  0
   20.2527  -14.8372   25.8145 C   0  0  1  0  0  0  0  0  0  0  0  0
   20.2884  -15.5526   27.0670 C   0  0  0  0  0  0  0  0  0  0  0  0
   21.2469  -13.7401   25.9403 C   0  0  0  0  0  0  0  0  0  0  0  0
   21.8006  -13.4097   27.0855 C   0  0  0  0  0  0  0  0  0  0  0  0
  1  2  1  0
  1  3  1  0
  2  4  1  0
  3  5  1  0
  4  5  1  0
  5  6  1  1
  6  7  1  0
  7  8  1  0
  3  9  1  6
  8 10  2  0
  9 11  2  0
  9 12  1  0
  8 13  1  0
 11 14  1  0
 15 12  1  6
 14 16  1  0
 15 16  1  0
 15 17  1  0
 17 18  1  6
 17 19  1  0
 19 20  1  0
M  END
$$$$
62
     RDKit          3D

 20 23  0  0  0  0  0  0  0  0999 V2000
   19.7530  -12.0841   19.7492 C   0  0  0  0  0  0  0  0  0  0  0  0
   18.4622  -12.0998   19.9560 C   0  0  0  0  0  0  0  0  0  0  0  0
   17.4315  -11.3794   19.3805 N   0  0  0  0  0  0  0  0  0  0  0  0
   17.8566  -13.0075   20.9578 C   0  0  2  0  0  0  0  0  0  0  0  0
   18.8644  -13.9420   21.4961 C   0  0  1  0  0  0  0  0  0  0  0  0
   16.2268  -11.6497   19.8942 C   0  0  2  0  0  0  0  0  0  0  0  0
   16.4990  -12.7074   20.9302 C   0  0  2  0  0  0  0  0  0  0  0  0
   20.0913  -13.8551   21.3986 C   0  0  1  0  0  0  0  0  0  0  0  0
   20.9579  -14.7277   22.1904 O   0  0  0  0  0  0  0  0  0  0  0  0
   15.4065  -13.0531   21.8393 C   0  0  0  0  0  0  0  0  0  0  0  0
   18.1741  -14.8923   22.6728 C   0  0  0  0  0  0  0  0  0  0  0  0
   20.5998  -14.9776   23.5345 C   0  0  2  0  0  0  0  0  0  0  0  0
   20.6349  -13.0697   20.4066 C   0  0  0  0  0  0  0  0  0  0  0  0
   14.8923  -11.2402   19.5891 C   0  0  0  0  0  0  0  0  0  0  0  0
   17.0586  -15.2583   22.6954 O   0  0  0  0  0  0  0  0  0  0  0  0
   14.1079  -12.5770   21.5169 C   0  0  0  0  0  0  0  0  0  0  0  0
   19.0560  -15.2418   23.7578 C   0  0  0  0  0  0  0  0  0  0  0  0
   21.0183  -13.7361   24.4445 C   0  0  0  0  0  0  0  0  0  0  0  0
   20.3335  -13.7541   25.7760 O   0  0  0  0  0  0  0  0  0  0  0  0
   13.8967  -11.6202   20.4512 C   0  0  0  0  0  0  0  0  0  0  0  0
  1  2  1  0
  2  3  1  0
  4  2  1  6
  4  5  1  0
  3  6  1  0
  4  7  1  0
  6  7  1  0
  5  8  1  0
  8  9  1  0
  7 10  1  1
  5 11  1  1
  9 12  1  0
  1 13  1  0
  8 13  1  6
  6 14  1  6
 11 15  2  0
 10 16  1  0
 11 17  1  0
 12 17  1  0
 12 18  1  1
 18 19  1  0
 14 20  1  0
 16 20  1  0
M  END
$$$$
63
     RDKit          3D

 20 21  0  0  0  0  0  0  0  0999 V2000
   20.2578  -11.9950   19.5529 C   0  0  0  0  0  0  0  0  0  0  0  0
   19.9696  -12.6754   20.7544 C   0  0  0  0  0  0  0  0  0  0  0  0
   18.7923  -12.9256   21.0490 C   0  0  2  0  0  0  0  0  0  0  0  0
   17.5892  -12.5056   20.3498 C   0  0  1  0  0  0  0  0  0  0  0  0
   19.0096  -11.6439   18.8392 C   0  0  0  0  0  0  0  0  0  0  0  0
   16.2694  -12.7062   20.9463 C   0  0  1  0  0  0  0  0  0  0  0  0
   18.4029  -13.7073   22.3695 C   0  0  1  0  0  0  0  0  0  0  0  0
   15.0452  -12.1799   20.2707 C   0  0  0  0  0  0  0  0  0  0  0  0
   17.0698  -13.9540   22.7116 C   0  0  0  0  0  0  0  0  0  0  0  0
   19.2704  -11.0247   17.6077 O   0  0  0  0  0  0  0  0  0  0  0  0
   17.7590  -11.8656   19.2481 C   0  0  0  0  0  0  0  0  0  0  0  0
   19.5152  -14.3036   23.1289 C   0  0  0  0  0  0  0  0  0  0  0  0
   16.0361  -13.4759   22.0398 N   0  0  0  0  0  0  0  0  0  0  0  0
   20.6136  -14.4503   22.5927 O   0  0  0  0  0  0  0  0  0  0  0  0
   19.3663  -14.6970   24.3775 N   0  0  0  0  0  0  0  0  0  0  0  0
   14.2910  -11.3274   21.0167 C   0  0  0  0  0  0  0  0  0  0  0  0
   20.2421  -15.0641   25.2153 C   0  0  0  0  0  0  0  0  0  0  0  0
   21.0503  -13.8793   25.8155 C   0  0  0  0  0  0  0  0  0  0  0  0
   14.1120  -13.1598   19.7139 C   0  0  0  0  0  0  0  0  0  0  0  0
   20.8912  -13.4816   27.0578 C   0  0  0  0  0  0  0  0  0  0  0  0
  1  2  1  0
  3  2  1  1
  3  4  1  0
  1  5  1  0
  4  6  1  0
  3  7  1  0
  6  8  1  6
  7  9  1  0
  5 10  1  0
  4 11  1  1
  5 11  1  0
  7 12  1  6
  6 13  1  0
  9 13  1  0
 12 14  2  0
 12 15  1  0
  8 16  1  0
 15 17  1  0
 17 18  1  0
  8 19  1  0
 18 20  1  0
M  END
$$$$
64
     RDKit          3D

 20 21  0  0  0  0  0  0  0  0999 V2000
   20.1885  -12.8464   20.6593 C   0  0  0  0  0  0  0  0  0  0  0  0
   19.8070  -11.9017   19.7794 C   0  0  0  0  0  0  0  0  0  0  0  0
   19.0681  -13.2738   21.5665 C   0  0  1  0  0  0  0  0  0  0  0  0
   18.3123  -11.8377   19.6581 C   0  0  0  0  0  0  0  0  0  0  0  0
   17.8863  -12.6873   20.8199 C   0  0  2  0  0  0  0  0  0  0  0  0
   16.4339  -12.8276   21.2078 C   0  0  2  0  0  0  0  0  0  0  0  0
   15.4755  -12.0298   20.7067 C   0  0  0  0  0  0  0  0  0  0  0  0
   14.1050  -12.1117   21.1088 C   0  0  2  0  0  0  0  0  0  0  0  0
   18.9214  -14.3804   22.3537 C   0  0  0  0  0  0  0  0  0  0  0  0
   16.0378  -13.7983   22.1962 N   0  0  0  0  0  0  0  0  0  0  0  0
   13.8222  -13.1114   22.0255 C   0  0  0  0  0  0  0  0  0  0  0  0
   20.0763  -15.0962   22.6980 C   0  0  0  0  0  0  0  0  0  0  0  0
   20.1172  -15.5900   24.0356 C   0  0  0  0  0  0  0  0  0  0  0  0
   12.8988  -11.4161   20.6900 C   0  0  0  0  0  0  0  0  0  0  0  0
   14.9265  -14.0501   22.3497 C   0  0  0  0  0  0  0  0  0  0  0  0
   20.6916  -16.6133   24.4614 O   0  0  0  0  0  0  0  0  0  0  0  0
   19.2836  -14.7862   24.9416 N   0  0  0  0  0  0  0  0  0  0  0  0
   19.6576  -14.6400   26.3398 C   0  0  0  0  0  0  0  0  0  0  0  0
   21.0636  -14.3348   26.4676 C   0  0  0  0  0  0  0  0  0  0  0  0
   21.2856  -12.9099   26.6011 C   0  0  0  0  0  0  0  0  0  0  0  0
  1  2  1  0
  1  3  1  0
  2  4  1  0
  3  5  1  0
  5  4  1  1
  5  6  1  0
  6  7  1  1
  7  8  1  0
  3  9  1  6
  6 10  1  0
  8 11  1  0
  9 12  1  0
 12 13  1  0
  8 14  1  6
 10 15  1  0
 11 15  1  0
 13 16  2  0
 13 17  1  0
 17 18  1  0
 18 19  1  0
 19 20  1  0
M  END
$$$$
65
     RDKit          3D

 20 22  0  0  0  0  0  0  0  0999 V2000
   20.1885  -12.8464   20.6593 C   0  0  0  0  0  0  0  0  0  0  0  0
   19.8070  -11.9017   19.7794 C   0  0  0  0  0  0  0  0  0  0  0  0
   19.0681  -13.2738   21.5665 C   0  0  1  0  0  0  0  0  0  0  0  0
   18.3123  -11.8377   19.6581 C   0  0  0  0  0  0  0  0  0  0  0  0
   17.8863  -12.6873   20.8199 C   0  0  2  0  0  0  0  0  0  0  0  0
   16.4339  -12.8276   21.2078 C   0  0  2  0  0  0  0  0  0  0  0  0
   15.4755  -12.0298   20.7067 C   0  0  0  0  0  0  0  0  0  0  0  0
   14.1050  -12.1117   21.1088 C   0  0  0  0  0  0  0  0  0  0  0  0
   18.9214  -14.3804   22.3537 C   0  0  0  0  0  0  0  0  0  0  0  0
   16.0378  -13.7983   22.1962 N   0  0  0  0  0  0  0  0  0  0  0  0
   13.8222  -13.1114   22.0255 N   0  0  0  0  0  0  0  0  0  0  0  0
   14.6389  -14.0045   22.3416 C   0  0  0  0  0  0  0  0  0  0  0  0
   18.7971  -15.5831   22.1114 O   0  0  0  0  0  0  0  0  0  0  0  0
   18.7950  -13.9638   23.8162 N   0  0  0  0  0  0  0  0  0  0  0  0
   18.6714  -14.9985   24.7926 C   0  0  2  0  0  0  0  0  0  0  0  0
   19.7732  -14.9843   25.8052 C   0  0  1  0  0  0  0  0  0  0  0  0
   18.5560  -16.4482   24.5206 C   0  0  0  0  0  0  0  0  0  0  0  0
   19.3054  -17.1286   25.4951 C   0  0  0  0  0  0  0  0  0  0  0  0
   20.0728  -16.2555   26.2146 N   0  0  0  0  0  0  0  0  0  0  0  0
   20.6913  -13.8941   26.0711 C   0  0  0  0  0  0  0  0  0  0  0  0
  1  2  1  0
  1  3  1  0
  2  4  1  0
  3  5  1  0
  5  4  1  1
  5  6  1  0
  6  7  1  1
  7  8  1  0
  3  9  1  6
  6 10  1  0
  8 11  1  0
 10 12  1  0
 11 12  1  0
  9 13  2  0
  9 14  1  0
 15 14  1  6
 15 16  1  0
 15 17  1  0
 17 18  1  0
 16 19  1  0
 18 19  1  0
 16 20  1  6
M  END
$$$$
66
     RDKit          3D

 20 22  0  0  0  0  0  0  0  0999 V2000
   20.1181  -13.1118   20.9806 C   0  0  0  0  0  0  0  0  0  0  0  0
   18.9864  -13.5292   21.5966 C   0  0  1  0  0  0  0  0  0  0  0  0
   20.0110  -12.1472   19.8861 C   0  0  2  0  0  0  0  0  0  0  0  0
   21.1933  -11.7173   19.2054 F   0  0  0  0  0  0  0  0  0  0  0  0
   18.8636  -11.5405   19.4809 C   0  0  0  0  0  0  0  0  0  0  0  0
   17.6377  -12.0835   20.1973 C   0  0  0  0  0  0  0  0  0  0  0  0
   18.9911  -14.4124   22.7194 C   0  0  1  0  0  0  0  0  0  0  0  0
   17.8200  -14.9373   23.1247 C   0  0  2  0  0  0  0  0  0  0  0  0
   20.1170  -15.3951   22.9042 C   0  0  0  0  0  0  0  0  0  0  0  0
   17.7240  -12.9395   21.2034 C   0  0  0  0  0  0  0  0  0  0  0  0
   19.9905  -16.3107   23.9742 C   0  0  2  0  0  0  0  0  0  0  0  0
   16.5197  -13.3893   21.9667 C   0  0  0  0  0  0  0  0  0  0  0  0
   16.5949  -14.3333   22.8995 N   0  0  0  0  0  0  0  0  0  0  0  0
   15.2953  -12.8485   21.6331 N   0  0  0  0  0  0  0  0  0  0  0  0
   21.0394  -17.0784   24.4553 C   0  0  0  0  0  0  0  0  0  0  0  0
   20.8023  -18.2183   25.0095 O   0  0  0  0  0  0  0  0  0  0  0  0
   22.2214  -17.1491   23.6221 O   0  0  0  0  0  0  0  0  0  0  0  0
   18.7428  -16.6652   24.6491 C   0  0  0  0  0  0  0  0  0  0  0  0
   17.7470  -15.8476   24.4085 C   0  0  0  0  0  0  0  0  0  0  0  0
   14.0977  -13.5555   21.9570 O   0  0  0  0  0  0  0  0  0  0  0  0
  2  1  1  1
  1  3  1  0
  3  4  1  1
  3  5  1  0
  5  6  1  0
  2  7  1  0
  7  8  1  0
  7  9  1  6
  2 10  1  0
  6 10  1  0
  9 11  1  0
 10 12  1  0
  8 13  1  0
 12 13  1  0
 12 14  2  3
 11 15  1  6
 15 16  1  0
 15 17  2  0
 11 18  1  0
  8 19  1  1
 18 19  1  0
 14 20  1  0
M  END
$$$$
67
     RDKit          3D

 20 23  0  0  0  0  0  0  0  0999 V2000
   19.7530  -12.0841   19.7492 C   0  0  0  0  0  0  0  0  0  0  0  0
   18.4622  -12.0998   19.9560 C   0  0  0  0  0  0  0  0  0  0  0  0
   17.4315  -11.3794   19.3805 N   0  0  0  0  0  0  0  0  0  0  0  0
   17.8566  -13.0075   20.9578 C   0  0  2  0  0  0  0  0  0  0  0  0
   18.8644  -13.9420   21.4961 C   0  0  1  0  0  0  0  0  0  0  0  0
   16.2268  -11.6497   19.8942 C   0  0  2  0  0  0  0  0  0  0  0  0
   16.4990  -12.7074   20.9302 C   0  0  2  0  0  0  0  0  0  0  0  0
   20.0913  -13.8551   21.3986 C   0  0  1  0  0  0  0  0  0  0  0  0
   20.9579  -14.7277   22.1904 O   0  0  0  0  0  0  0  0  0  0  0  0
   15.4065  -13.0531   21.8393 C   0  0  0  0  0  0  0  0  0  0  0  0
   18.1741  -14.8923   22.6728 C   0  0  0  0  0  0  0  0  0  0  0  0
   20.5998  -14.9776   23.5345 C   0  0  2  0  0  0  0  0  0  0  0  0
   20.6349  -13.0697   20.4066 C   0  0  0  0  0  0  0  0  0  0  0  0
   14.8923  -11.2402   19.5891 C   0  0  0  0  0  0  0  0  0  0  0  0
   14.1258  -12.6101   21.4307 C   0  0  0  0  0  0  0  0  0  0  0  0
   13.8975  -11.6970   20.4173 C   0  0  0  0  0  0  0  0  0  0  0  0
   21.5150  -15.1846   24.4696 C   0  0  0  0  0  0  0  0  0  0  0  0
   21.9291  -13.9976   25.1279 O   0  0  0  0  0  0  0  0  0  0  0  0
   19.1374  -15.2799   23.6333 C   0  0  0  0  0  0  0  0  0  0  0  0
   21.2016  -13.2763   26.0262 C   0  0  0  0  0  0  0  0  0  0  0  0
  1  2  1  0
  2  3  1  0
  4  2  1  6
  4  5  1  0
  3  6  1  0
  4  7  1  0
  6  7  1  0
  5  8  1  0
  8  9  1  0
  7 10  1  1
  5 11  1  1
  9 12  1  0
  1 13  1  0
  8 13  1  6
  6 14  1  6
 10 15  1  0
 14 16  1  0
 15 16  1  0
 12 17  1  6
 17 18  1  0
 11 19  1  0
 12 19  1  0
 18 20  1  0
M  END
$$$$
68
     RDKit          3D

 20 22  0  0  0  0  0  0  0  0999 V2000
   20.1181  -13.1118   20.9806 C   0  0  0  0  0  0  0  0  0  0  0  0
   18.9864  -13.5292   21.5966 C   0  0  2  0  0  0  0  0  0  0  0  0
   20.0110  -12.1472   19.8861 C   0  0  2  0  0  0  0  0  0  0  0  0
   21.1933  -11.7173   19.2054 F   0  0  0  0  0  0  0  0  0  0  0  0
   18.8636  -11.5405   19.4809 C   0  0  0  0  0  0  0  0  0  0  0  0
   17.6377  -12.0835   20.1973 C   0  0  1  0  0  0  0  0  0  0  0  0
   17.7091  -12.9462   21.2537 C   0  0  1  0  0  0  0  0  0  0  0  0
   18.8505  -14.4402   22.7851 C   0  0  1  0  0  0  0  0  0  0  0  0
   16.2102  -11.3970   19.7623 C   0  0  0  0  0  0  0  0  0  0  0  0
   16.7296  -13.5803   22.0476 N   0  0  0  0  0  0  0  0  0  0  0  0
   17.3525  -14.4569   22.9223 N   0  0  0  0  0  0  0  0  0  0  0  0
   19.4220  -15.3280   23.3784 N   0  0  0  0  0  0  0  0  0  0  0  0
   20.8343  -15.1277   23.6219 C   0  0  0  0  0  0  0  0  0  0  0  0
   18.8490  -15.6938   24.6821 C   0  0  0  0  0  0  0  0  0  0  0  0
   15.1785  -12.3272   19.9762 N   0  0  0  0  0  0  0  0  0  0  0  0
   13.9284  -11.6828   19.6542 C   0  0  0  0  0  0  0  0  0  0  0  0
   19.6712  -15.1491   25.7545 C   0  0  0  0  0  0  0  0  0  0  0  0
   20.9915  -15.0199   25.1022 C   0  0  2  0  0  0  0  0  0  0  0  0
   22.1229  -14.3224   25.7203 C   0  0  0  0  0  0  0  0  0  0  0  0
   21.8025  -13.1761   26.5808 C   0  0  0  0  0  0  0  0  0  0  0  0
  2  1  1  1
  1  3  1  0
  3  4  1  1
  3  5  1  0
  5  6  1  0
  2  7  1  0
  6  7  1  0
  2  8  1  0
  6  9  1  1
  7 10  1  6
  8 11  1  0
 10 11  1  0
  8 12  1  6
 12 13  1  0
 12 14  1  0
  9 15  1  0
 15 16  1  0
 14 17  1  0
 13 18  1  0
 17 18  1  0
 18 19  1  6
 19 20  1  0
M  END
$$$$
69
     RDKit          3D

 20 21  0  0  0  0  0  0  0  0999 V2000
   20.1885  -12.8464   20.6593 C   0  0  0  0  0  0  0  0  0  0  0  0
   19.8070  -11.9017   19.7794 C   0  0  0  0  0  0  0  0  0  0  0  0
   19.0681  -13.2738   21.5665 C   0  0  1  0  0  0  0  0  0  0  0  0
   18.3123  -11.8377   19.6581 C   0  0  0  0  0  0  0  0  0  0  0  0
   17.8863  -12.6873   20.8199 C   0  0  2  0  0  0  0  0  0  0  0  0
   16.4339  -12.8276   21.2078 C   0  0  0  0  0  0  0  0  0  0  0  0
   15.4755  -12.0298   20.7067 C   0  0  0  0  0  0  0  0  0  0  0  0
   14.1050  -12.1117   21.1088 C   0  0  0  0  0  0  0  0  0  0  0  0
   18.9214  -14.3804   22.3537 C   0  0  0  0  0  0  0  0  0  0  0  0
   13.6485  -12.6264   21.9522 O   0  0  0  0  0  0  0  0  0  0  0  0
   18.3700  -15.4963   22.1185 C   0  0  0  0  0  0  0  0  0  0  0  0
   19.7464  -14.2669   23.6846 C   0  0  0  0  0  0  0  0  0  0  0  0
   13.2254  -11.4499   20.2467 O   0  0  0  0  0  0  0  0  0  0  0  0
   17.4191  -16.0015   21.1568 O   0  0  0  0  0  0  0  0  0  0  0  0
   19.3384  -15.0369   24.7776 C   0  0  2  0  0  0  0  0  0  0  0  0
   18.1566  -16.5404   23.2932 C   0  0  0  0  0  0  0  0  0  0  0  0
   20.2498  -14.9078   25.9253 C   0  0  0  0  0  0  0  0  0  0  0  0
   19.0902  -16.4397   24.4364 N   0  0  0  0  0  0  0  0  0  0  0  0
   19.4217  -17.5463   25.1553 C   0  0  0  0  0  0  0  0  0  0  0  0
   20.8931  -13.5865   26.0744 C   0  0  0  0  0  0  0  0  0  0  0  0
  1  2  1  0
  1  3  1  0
  2  4  1  0
  3  5  1  0
  4  5  1  0
  5  6  1  1
  6  7  1  0
  7  8  1  0
  3  9  1  6
  8 10  2  0
  9 11  2  0
  9 12  1  0
  8 13  1  0
 11 14  1  0
 12 15  1  0
 11 16  1  0
 15 17  1  1
 15 18  1  0
 16 18  1  0
 18 19  1  0
 17 20  1  0
M  END
$$$$
7
     RDKit          3D

 11 12  0  0  0  0  0  0  0  0999 V2000
   11.5607  -11.0747   23.5713 C   0  0  0  0  0  0  0  0  0  0  0  0
   12.5827  -10.5475   22.8494 C   0  0  0  0  0  0  0  0  0  0  0  0
   13.2179  -11.2634   21.8820 C   0  0  2  0  0  0  0  0  0  0  0  0
   12.9700  -12.6489   21.8391 C   0  0  2  0  0  0  0  0  0  0  0  0
   14.2451  -10.7405   21.0194 C   0  0  0  0  0  0  0  0  0  0  0  0
   11.3408  -12.4418   23.5414 C   0  0  1  0  0  0  0  0  0  0  0  0
   13.6785  -13.3100   20.7718 C   0  0  0  0  0  0  0  0  0  0  0  0
   14.9563  -11.6029   20.2975 C   0  0  0  0  0  0  0  0  0  0  0  0
   14.6396  -12.8777   20.0967 C   0  0  0  0  0  0  0  0  0  0  0  0
   10.2942  -13.0412   24.3040 N   0  0  0  0  0  0  0  0  0  0  0  0
   11.9929  -13.2806   22.5884 C   0  0  0  0  0  0  0  0  0  0  0  0
  1  2  1  0
  3  2  1  1
  3  4  1  0
  3  5  1  0
  1  6  1  0
  4  7  1  6
  5  8  1  0
  7  9  1  0
  8  9  1  0
  6 10  1  6
  4 11  1  0
  6 11  1  0
M  END
$$$$
70
     RDKit          3D

 21 22  0  0  0  0  0  0  0  0999 V2000
   20.3722  -12.8727   20.5736 C   0  0  0  0  0  0  0  0  0  0  0  0
   19.8961  -11.8796   19.7834 C   0  0  0  0  0  0  0  0  0  0  0  0
   19.4132  -13.5120   21.4506 C   0  0  2  0  0  0  0  0  0  0  0  0
   18.0378  -13.0137   21.4314 C   0  0  0  0  0  0  0  0  0  0  0  0
   17.8407  -12.0857   20.4950 C   0  0  0  0  0  0  0  0  0  0  0  0
   19.9007  -14.5402   22.4549 C   0  0  0  0  0  0  0  0  0  0  0  0
   18.6484  -11.4913   19.6817 N   0  0  0  0  0  0  0  0  0  0  0  0
   16.2131  -11.6062   20.4634 C   0  0  0  0  0  0  0  0  0  0  0  0
   15.3495  -12.5492   20.0495 N   0  0  0  0  0  0  0  0  0  0  0  0
   20.1658  -15.6482   22.0327 O   0  0  0  0  0  0  0  0  0  0  0  0
   13.9977  -12.1661   20.2265 C   0  0  0  0  0  0  0  0  0  0  0  0
   13.7375  -11.5648   21.6044 C   0  0  0  0  0  0  0  0  0  0  0  0
   12.6363  -11.9662   22.3472 C   0  0  0  0  0  0  0  0  0  0  0  0
   12.1550  -13.1531   22.3006 C   0  0  0  0  0  0  0  0  0  0  0  0
   13.0799  -13.1948   19.7515 C   0  0  0  0  0  0  0  0  0  0  0  0
   19.8963  -14.2719   23.8024 N   0  0  0  0  0  0  0  0  0  0  0  0
   19.9084  -15.2495   24.8143 C   0  0  2  0  0  0  0  0  0  0  0  0
   18.6495  -15.5964   25.2557 C   0  0  0  0  0  0  0  0  0  0  0  0
   20.9059  -15.0502   25.9435 C   0  0  0  0  0  0  0  0  0  0  0  0
   12.0902  -13.7249   21.0618 C   0  0  0  0  0  0  0  0  0  0  0  0
   21.3295  -13.6688   26.0464 C   0  0  0  0  0  0  0  0  0  0  0  0
  1  2  1  0
  1  3  1  0
  3  4  1  0
  4  5  1  0
  3  6  1  1
  2  7  1  0
  5  7  1  0
  5  8  1  0
  8  9  1  0
  6 10  2  0
  9 11  1  0
 11 12  1  0
 12 13  1  0
 13 14  1  0
 11 15  1  0
  6 16  1  0
 16 17  1  0
 17 18  1  1
 17 19  1  0
 14 20  1  0
 15 20  1  0
 19 21  1  0
M  END
$$$$
71
     RDKit          3D

 21 23  0  0  0  0  0  0  0  0999 V2000
   20.3470  -12.1501   19.8558 C   0  0  0  0  0  0  0  0  0  0  0  0
   19.8317  -12.8515   20.8502 C   0  0  2  0  0  0  0  0  0  0  0  0
   20.4231  -13.7341   21.6259 N   0  0  0  0  0  0  0  0  0  0  0  0
   18.3790  -13.2330   20.8422 C   0  0  2  0  0  0  0  0  0  0  0  0
   17.3228  -12.5814   20.2434 C   0  0  0  0  0  0  0  0  0  0  0  0
   19.5536  -14.4656   22.3517 C   0  0  1  0  0  0  0  0  0  0  0  0
   18.1728  -14.2570   21.7973 N   0  0  0  0  0  0  0  0  0  0  0  0
   16.9605  -14.7468   22.1897 C   0  0  0  0  0  0  0  0  0  0  0  0
   19.8805  -15.4718   23.3285 C   0  0  0  0  0  0  0  0  0  0  0  0
   16.9037  -15.6876   22.9920 O   0  0  0  0  0  0  0  0  0  0  0  0
   20.1827  -14.8963   24.6387 C   0  0  0  0  0  0  0  0  0  0  0  0
   19.9479  -15.5069   25.7753 C   0  0  0  0  0  0  0  0  0  0  0  0
   15.8395  -14.1339   21.6323 C   0  0  0  0  0  0  0  0  0  0  0  0
   20.7457  -13.5010   24.6499 C   0  0  0  0  0  0  0  0  0  0  0  0
   16.0038  -13.0517   20.6630 C   0  0  0  0  0  0  0  0  0  0  0  0
   20.2303  -14.7902   26.9258 C   0  0  0  0  0  0  0  0  0  0  0  0
   21.1056  -13.1387   25.9944 C   0  0  0  0  0  0  0  0  0  0  0  0
   20.8932  -13.6932   26.9992 C   0  0  0  0  0  0  0  0  0  0  0  0
   14.8140  -12.3541   20.0835 C   0  0  0  0  0  0  0  0  0  0  0  0
   14.0913  -11.4550   20.8926 C   0  0  0  0  0  0  0  0  0  0  0  0
   13.9173  -13.2900   19.3897 C   0  0  0  0  0  0  0  0  0  0  0  0
  2  1  1  6
  2  3  1  0
  2  4  1  0
  4  5  1  1
  3  6  1  0
  4  7  1  0
  6  7  1  0
  7  8  1  0
  6  9  1  6
  8 10  1  0
  9 11  1  0
 11 12  1  0
  8 13  1  0
 11 14  1  0
  5 15  1  0
 13 15  1  0
 12 16  1  0
 14 17  1  0
 16 18  1  0
 17 18  1  0
 15 19  1  0
 19 20  1  0
 19 21  1  0
M  END
$$$$
72
     RDKit          3D

 21 24  0  0  0  0  0  0  0  0999 V2000
   20.1096  -12.1790   19.7698 C   0  0  0  0  0  0  0  0  0  0  0  0
   18.8964  -11.7678   19.4847 C   0  0  0  0  0  0  0  0  0  0  0  0
   17.9814  -12.3717   20.5224 C   0  0  1  0  0  0  0  0  0  0  0  0
   20.5540  -13.0047   20.7245 C   0  0  0  0  0  0  0  0  0  0  0  0
   18.2987  -13.1701   21.5413 C   0  0  2  0  0  0  0  0  0  0  0  0
   16.4549  -11.9251   20.4636 C   0  0  2  0  0  0  0  0  0  0  0  0
   19.6516  -13.5275   21.6317 C   0  0  2  0  0  0  0  0  0  0  0  0
   17.1204  -13.5851   22.2228 C   0  0  2  0  0  0  0  0  0  0  0  0
   19.9542  -14.3936   22.7980 C   0  0  0  0  0  0  0  0  0  0  0  0
   17.4108  -14.7196   23.1443 N   0  0  0  0  0  0  0  0  0  0  0  0
   16.0914  -13.0073   21.6386 C   0  0  1  0  0  0  0  0  0  0  0  0
   14.6561  -13.0981   22.0169 N   0  0  0  0  0  0  0  0  0  0  0  0
   15.4983  -11.2603   19.8834 C   0  0  0  0  0  0  0  0  0  0  0  0
   13.8211  -12.4122   21.2481 C   0  0  1  0  0  0  0  0  0  0  0  0
   18.7122  -14.9734   23.4544 C   0  0  1  0  0  0  0  0  0  0  0  0
   18.8716  -16.1066   24.5291 C   0  0  0  0  0  0  0  0  0  0  0  0
   12.4504  -12.4799   21.6217 N   0  0  0  0  0  0  0  0  0  0  0  0
   14.1520  -11.5289   20.1730 C   0  0  0  0  0  0  0  0  0  0  0  0
   19.4173  -15.6064   25.7419 C   0  0  0  0  0  0  0  0  0  0  0  0
   20.1699  -14.3776   25.7984 C   0  0  0  0  0  0  0  0  0  0  0  0
   20.8418  -14.0055   26.9922 C   0  0  0  0  0  0  0  0  0  0  0  0
  1  2  1  0
  3  2  1  1
  1  4  1  0
  3  5  1  0
  3  6  1  0
  7  4  1  1
  5  7  1  6
  5  8  1  0
  7  9  1  0
  8 10  1  6
  6 11  1  0
  8 11  1  0
 11 12  1  1
  6 13  1  6
 12 14  1  0
  9 15  1  0
 10 15  1  0
 15 16  1  6
 14 17  1  1
 13 18  1  0
 14 18  1  0
 16 19  1  0
 19 20  1  0
 20 21  1  0
M  END
$$$$
73
     RDKit          3D

 21 21  0  0  0  0  0  0  0  0999 V2000
   20.1653  -11.9611   19.3868 C   0  0  0  0  0  0  0  0  0  0  0  0
   20.0671  -12.5378   20.5982 C   0  0  0  0  0  0  0  0  0  0  0  0
   18.9804  -11.4756   18.7501 C   0  0  0  0  0  0  0  0  0  0  0  0
   18.7283  -12.8514   21.1973 C   0  0  2  0  0  0  0  0  0  0  0  0
   17.7055  -11.8626   19.4564 C   0  0  2  0  0  0  0  0  0  0  0  0
   16.4593  -11.3476   18.8452 O   0  0  0  0  0  0  0  0  0  0  0  0
   15.3626  -12.2420   18.7801 C   0  0  0  0  0  0  0  0  0  0  0  0
   17.5358  -12.3926   20.7330 C   0  0  0  0  0  0  0  0  0  0  0  0
   15.0439  -12.9411   17.7817 C   0  0  0  0  0  0  0  0  0  0  0  0
   14.5250  -12.2095   20.0066 C   0  0  1  0  0  0  0  0  0  0  0  0
   18.7291  -13.5416   22.4918 O   0  0  0  0  0  0  0  0  0  0  0  0
   14.5814  -11.2050   20.9499 C   0  0  0  0  0  0  0  0  0  0  0  0
   19.3525  -14.6936   22.6383 C   0  0  0  0  0  0  0  0  0  0  0  0
   13.1279  -12.3685   19.6015 O   0  0  0  0  0  0  0  0  0  0  0  0
   19.3319  -15.0085   24.0140 C   0  0  1  0  0  0  0  0  0  0  0  0
   19.8788  -14.2230   24.8904 C   0  0  0  0  0  0  0  0  0  0  0  0
   21.1345  -14.1832   25.2280 C   0  0  0  0  0  0  0  0  0  0  0  0
   21.6896  -13.2322   26.2475 C   0  0  0  0  0  0  0  0  0  0  0  0
   18.6055  -16.2069   24.4471 N   0  0  0  0  0  0  0  0  0  0  0  0
   17.6453  -16.1094   25.3950 C   0  0  0  0  0  0  0  0  0  0  0  0
   19.3775  -17.4503   24.6000 C   0  0  0  0  0  0  0  0  0  0  0  0
  1  2  1  0
  1  3  1  0
  2  4  1  0
  3  5  1  0
  5  6  1  1
  6  7  1  0
  4  8  1  0
  5  8  1  0
  7  9  2  0
  7 10  1  0
  4 11  1  1
 10 12  1  6
 11 13  1  0
 10 14  1  0
 15 13  1  1
 15 16  1  0
 16 17  1  0
 17 18  1  0
 15 19  1  0
 19 20  1  0
 19 21  1  0
M  END
$$$$
74
     RDKit          3D

 21 23  0  0  0  0  0  0  0  0999 V2000
   20.3722  -12.8727   20.5736 C   0  0  0  0  0  0  0  0  0  0  0  0
   19.8961  -11.8796   19.7834 C   0  0  0  0  0  0  0  0  0  0  0  0
   19.4132  -13.5120   21.4506 C   0  0  2  0  0  0  0  0  0  0  0  0
   18.0378  -13.0137   21.4314 C   0  0  1  0  0  0  0  0  0  0  0  0
   17.8407  -12.0857   20.4950 C   0  0  0  0  0  0  0  0  0  0  0  0
   19.9007  -14.5402   22.4549 C   0  0  0  0  0  0  0  0  0  0  0  0
   18.6484  -11.4913   19.6817 N   0  0  0  0  0  0  0  0  0  0  0  0
   16.9654  -13.6764   22.2822 C   0  0  0  0  0  0  0  0  0  0  0  0
   16.2850  -11.9245   20.6311 C   0  0  2  0  0  0  0  0  0  0  0  0
   15.7584  -13.1519   21.9084 N   0  0  0  0  0  0  0  0  0  0  0  0
   20.4556  -14.1951   23.6409 C   0  0  2  0  0  0  0  0  0  0  0  0
   19.7392  -15.9418   22.0526 C   0  0  0  0  0  0  0  0  0  0  0  0
   20.0499  -16.9112   23.0363 C   0  0  1  0  0  0  0  0  0  0  0  0
   20.6064  -12.8499   24.0686 F   0  0  0  0  0  0  0  0  0  0  0  0
   15.0906  -12.2635   19.8510 C   0  0  0  0  0  0  0  0  0  0  0  0
   19.8977  -18.3239   22.6772 O   0  0  0  0  0  0  0  0  0  0  0  0
   21.0204  -15.0583   24.5979 C   0  0  0  0  0  0  0  0  0  0  0  0
   20.6174  -16.6220   24.3808 C   0  0  0  0  0  0  0  0  0  0  0  0
   15.1657  -13.1922   19.0650 O   0  0  0  0  0  0  0  0  0  0  0  0
   14.1621  -11.3384   19.8645 N   0  0  0  0  0  0  0  0  0  0  0  0
   18.5872  -18.6959   22.6357 C   0  0  0  0  0  0  0  0  0  0  0  0
  1  2  1  0
  1  3  1  0
  3  4  1  0
  4  5  1  0
  3  6  1  1
  2  7  1  0
  5  7  1  0
  4  8  1  6
  5  9  1  0
  8 10  1  0
  9 10  1  0
  6 11  1  0
  6 12  1  0
 12 13  1  0
 11 14  1  6
  9 15  1  6
 13 16  1  6
 11 17  1  0
 13 18  1  0
 17 18  1  0
 15 19  2  0
 15 20  1  0
 16 21  1  0
M  END
$$$$
75
     RDKit          3D

 21 24  0  0  0  0  0  0  0  0999 V2000
   11.5607  -11.0747   23.5713 C   0  0  0  0  0  0  0  0  0  0  0  0
   12.5827  -10.5475   22.8494 C   0  0  0  0  0  0  0  0  0  0  0  0
   11.4613  -12.3810   23.3455 C   0  0  0  0  0  0  0  0  0  0  0  0
   13.0831  -11.3517   21.7975 C   0  0  2  0  0  0  0  0  0  0  0  0
   12.2350  -12.7534   22.2077 C   0  0  1  0  0  0  0  0  0  0  0  0
   13.9866  -11.2731   20.8754 C   0  0  0  0  0  0  0  0  0  0  0  0
   12.8862  -13.7331   21.4705 C   0  0  0  0  0  0  0  0  0  0  0  0
   13.8410  -13.5668   20.6721 C   0  0  0  0  0  0  0  0  0  0  0  0
   14.3249  -12.5068   20.3738 C   0  0  1  0  0  0  0  0  0  0  0  0
   15.3706  -12.3945   19.2197 C   0  0  0  0  0  0  0  0  0  0  0  0
   16.6820  -11.9471   19.6110 C   0  0  0  0  0  0  0  0  0  0  0  0
   17.1690  -12.5006   20.7065 C   0  0  1  0  0  0  0  0  0  0  0  0
   16.7585  -13.3340   21.5371 N   0  0  0  0  0  0  0  0  0  0  0  0
   18.5986  -12.1024   20.8765 C   0  0  2  0  0  0  0  0  0  0  0  0
   19.4442  -11.6223   19.9026 O   0  0  0  0  0  0  0  0  0  0  0  0
   19.3033  -12.9881   21.9206 C   0  0  0  0  0  0  0  0  0  0  0  0
   20.5422  -13.0597   22.2434 O   0  0  0  0  0  0  0  0  0  0  0  0
   18.1117  -13.7147   22.4253 C   0  0  2  0  0  0  0  0  0  0  0  0
   20.6403  -14.1232   23.2247 C   0  0  0  0  0  0  0  0  0  0  0  0
   18.3113  -14.7173   23.2007 C   0  0  0  0  0  0  0  0  0  0  0  0
   19.6247  -14.8457   23.7563 C   0  0  0  0  0  0  0  0  0  0  0  0
  1  2  1  0
  1  3  1  0
  4  2  1  1
  5  3  1  1
  4  5  1  0
  4  6  1  0
  5  7  1  0
  7  8  1  0
  6  9  1  0
  8  9  1  0
  9 10  1  6
 10 11  1  0
 12 11  1  6
 12 13  1  0
 12 14  1  0
 14 15  1  6
 14 16  1  0
 16 17  1  0
 13 18  1  0
 16 18  1  0
 17 19  1  0
 18 20  1  6
 19 21  1  0
 20 21  1  0
M  END
$$$$
76
     RDKit          3D

 21 23  0  0  0  0  0  0  0  0999 V2000
   20.1096  -12.1790   19.7698 C   0  0  0  0  0  0  0  0  0  0  0  0
   18.8964  -11.7678   19.4847 C   0  0  0  0  0  0  0  0  0  0  0  0
   17.9814  -12.3717   20.5224 C   0  0  0  0  0  0  0  0  0  0  0  0
   20.5540  -13.0047   20.7245 C   0  0  0  0  0  0  0  0  0  0  0  0
   18.2987  -13.1701   21.5413 C   0  0  2  0  0  0  0  0  0  0  0  0
   16.3231  -12.1644   20.6503 C   0  0  1  0  0  0  0  0  0  0  0  0
   15.8280  -11.0164   20.1393 N   0  0  0  0  0  0  0  0  0  0  0  0
   19.6212  -13.4774   21.6322 C   0  0  0  0  0  0  0  0  0  0  0  0
   14.4668  -11.0258   20.4042 C   0  0  0  0  0  0  0  0  0  0  0  0
   20.1937  -14.4763   22.8681 C   0  0  0  0  0  0  0  0  0  0  0  0
   20.2457  -13.8362   24.1186 C   0  0  0  0  0  0  0  0  0  0  0  0
   19.9740  -14.6740   25.3128 C   0  0  1  0  0  0  0  0  0  0  0  0
   15.5469  -13.1104   21.1567 N   0  0  0  0  0  0  0  0  0  0  0  0
   15.8300  -14.2965   21.6909 C   0  0  0  0  0  0  0  0  0  0  0  0
   17.2494  -14.0101   22.3522 C   0  0  0  0  0  0  0  0  0  0  0  0
   19.1162  -15.7445   25.2762 C   0  0  0  0  0  0  0  0  0  0  0  0
   21.2725  -14.9314   25.9547 C   0  0  0  0  0  0  0  0  0  0  0  0
   14.3318  -12.3155   20.8936 N   0  0  0  0  0  0  0  0  0  0  0  0
   13.0846  -12.9056   21.4548 C   0  0  0  0  0  0  0  0  0  0  0  0
   21.8445  -13.8387   26.6852 C   0  0  0  0  0  0  0  0  0  0  0  0
   21.0785  -12.6543   26.7549 O   0  0  0  0  0  0  0  0  0  0  0  0
  1  2  1  0
  2  3  1  0
  1  4  1  0
  3  5  1  0
  3  6  1  0
  6  7  1  6
  4  8  1  0
  5  8  1  0
  7  9  1  0
  8 10  1  0
 10 11  1  0
 11 12  1  0
  6 13  1  0
 13 14  1  0
  5 15  1  6
 14 15  1  0
 12 16  1  6
 12 17  1  0
  9 18  1  0
 13 18  1  0
 18 19  1  0
 17 20  1  0
 20 21  1  0
M  END
$$$$
77
     RDKit          3D

 21 25  0  0  0  0  0  0  0  0999 V2000
   20.1181  -13.1118   20.9806 C   0  0  0  0  0  0  0  0  0  0  0  0
   18.9864  -13.5292   21.5966 C   0  0  2  0  0  0  0  0  0  0  0  0
   20.0110  -12.1472   19.8861 C   0  0  2  0  0  0  0  0  0  0  0  0
   21.1933  -11.7173   19.2054 F   0  0  0  0  0  0  0  0  0  0  0  0
   18.8636  -11.5405   19.4809 C   0  0  0  0  0  0  0  0  0  0  0  0
   17.6377  -12.0835   20.1973 C   0  0  1  0  0  0  0  0  0  0  0  0
   17.7091  -12.9462   21.2537 C   0  0  1  0  0  0  0  0  0  0  0  0
   18.8505  -14.4402   22.7851 C   0  0  1  0  0  0  0  0  0  0  0  0
   16.2102  -11.3970   19.7623 C   0  0  0  0  0  0  0  0  0  0  0  0
   16.7296  -13.5803   22.0476 N   0  0  0  0  0  0  0  0  0  0  0  0
   17.3525  -14.4569   22.9223 N   0  0  0  0  0  0  0  0  0  0  0  0
   15.2139  -12.2789   20.0866 N   0  0  0  0  0  0  0  0  0  0  0  0
   19.6913  -15.1789   23.5428 C   0  0  0  0  0  0  0  0  0  0  0  0
   19.0660  -15.8695   24.5855 C   0  0  0  0  0  0  0  0  0  0  0  0
   13.8846  -11.6904   19.9704 C   0  0  0  0  0  0  0  0  0  0  0  0
   13.2449  -11.8450   21.3093 C   0  0  2  0  0  0  0  0  0  0  0  0
   12.8319  -10.8230   21.9367 C   0  0  0  0  0  0  0  0  0  0  0  0
   17.6546  -15.8639   24.7295 N   0  0  0  0  0  0  0  0  0  0  0  0
   16.8974  -15.1834   23.8781 C   0  0  0  0  0  0  0  0  0  0  0  0
   14.1789  -12.5121   22.2168 O   0  0  0  0  0  0  0  0  0  0  0  0
   15.2266  -13.2228   21.1735 C   0  0  2  0  0  0  0  0  0  0  0  0
  2  1  1  1
  1  3  1  0
  3  4  1  1
  3  5  1  0
  6  5  1  1
  2  7  1  0
  6  7  1  0
  2  8  1  0
  6  9  1  0
  7 10  1  6
  8 11  1  0
 10 11  1  0
  9 12  1  0
  8 13  1  6
 13 14  1  0
 12 15  1  0
 15 16  1  0
 16 17  1  1
 14 18  1  0
 11 19  1  0
 18 19  1  0
 16 20  1  0
 10 21  1  0
 12 21  1  0
 21 20  1  1
M  END
$$$$
78
     RDKit          3D

 21 25  0  0  0  0  0  0  0  0999 V2000
   19.7530  -12.0841   19.7492 C   0  0  0  0  0  0  0  0  0  0  0  0
   18.4622  -12.0998   19.9560 C   0  0  0  0  0  0  0  0  0  0  0  0
   17.4315  -11.3794   19.3805 N   0  0  0  0  0  0  0  0  0  0  0  0
   17.8566  -13.0075   20.9578 C   0  0  2  0  0  0  0  0  0  0  0  0
   18.8644  -13.9420   21.4961 C   0  0  1  0  0  0  0  0  0  0  0  0
   16.2268  -11.6497   19.8942 C   0  0  2  0  0  0  0  0  0  0  0  0
   16.4990  -12.7074   20.9302 C   0  0  2  0  0  0  0  0  0  0  0  0
   20.0913  -13.8551   21.3986 C   0  0  1  0  0  0  0  0  0  0  0  0
   20.9579  -14.7277   22.1904 O   0  0  0  0  0  0  0  0  0  0  0  0
   15.4065  -13.0531   21.8393 C   0  0  0  0  0  0  0  0  0  0  0  0
   18.1741  -14.8923   22.6728 C   0  0  0  0  0  0  0  0  0  0  0  0
   20.5998  -14.9776   23.5345 C   0  0  2  0  0  0  0  0  0  0  0  0
   20.6349  -13.0697   20.4066 C   0  0  0  0  0  0  0  0  0  0  0  0
   14.8923  -11.2402   19.5891 C   0  0  0  0  0  0  0  0  0  0  0  0
   14.1258  -12.6101   21.4307 C   0  0  0  0  0  0  0  0  0  0  0  0
   13.8975  -11.6970   20.4173 C   0  0  0  0  0  0  0  0  0  0  0  0
   21.5150  -15.1846   24.4696 C   0  0  0  0  0  0  0  0  0  0  0  0
   19.1049  -15.2489   23.6682 C   0  0  1  0  0  0  0  0  0  0  0  0
   18.6559  -15.7069   24.9176 C   0  0  0  0  0  0  0  0  0  0  0  0
   19.5785  -15.8591   25.9972 C   0  0  0  0  0  0  0  0  0  0  0  0
   20.9908  -15.5693   25.8107 C   0  0  0  0  0  0  0  0  0  0  0  0
  1  2  1  0
  2  3  1  0
  4  2  1  6
  4  5  1  0
  3  6  1  0
  4  7  1  0
  6  7  1  0
  5  8  1  0
  8  9  1  0
  7 10  1  1
  5 11  1  1
  9 12  1  0
  1 13  1  0
  8 13  1  6
  6 14  1  6
 10 15  1  0
 14 16  1  0
 15 16  1  0
 12 17  1  6
 18 11  1  1
 12 18  1  0
 18 19  1  0
 19 20  1  0
 17 21  1  0
 20 21  1  0
M  END
$$$$
79
     RDKit          3D

 21 23  0  0  0  0  0  0  0  0999 V2000
   20.1096  -12.1790   19.7698 C   0  0  0  0  0  0  0  0  0  0  0  0
   18.8964  -11.7678   19.4847 C   0  0  0  0  0  0  0  0  0  0  0  0
   17.9814  -12.3717   20.5224 C   0  0  0  0  0  0  0  0  0  0  0  0
   20.5540  -13.0047   20.7245 C   0  0  0  0  0  0  0  0  0  0  0  0
   18.2987  -13.1701   21.5413 C   0  0  1  0  0  0  0  0  0  0  0  0
   16.3231  -12.1644   20.6503 C   0  0  0  0  0  0  0  0  0  0  0  0
   17.3735  -13.7092   22.4241 O   0  0  0  0  0  0  0  0  0  0  0  0
   19.6680  -13.5717   21.7286 C   0  0  0  0  0  0  0  0  0  0  0  0
   19.9866  -14.3940   22.7960 C   0  0  0  0  0  0  0  0  0  0  0  0
   19.2724  -14.4647   23.9158 N   0  0  0  0  0  0  0  0  0  0  0  0
   17.8282  -14.3486   23.5732 C   0  0  0  0  0  0  0  0  0  0  0  0
   19.7099  -14.5481   25.2257 C   0  0  0  0  0  0  0  0  0  0  0  0
   20.6678  -13.7001   25.6328 C   0  0  0  0  0  0  0  0  0  0  0  0
   19.2971  -15.6509   25.8360 O   0  0  0  0  0  0  0  0  0  0  0  0
   15.5397  -12.3613   21.3247 N   0  0  0  0  0  0  0  0  0  0  0  0
   14.1307  -12.0909   21.1562 C   0  0  0  0  0  0  0  0  0  0  0  0
   13.2858  -12.7648   21.8436 C   0  0  0  0  0  0  0  0  0  0  0  0
   12.0023  -12.2300   22.2996 C   0  0  0  0  0  0  0  0  0  0  0  0
   13.4567  -11.2718   20.2822 C   0  0  0  0  0  0  0  0  0  0  0  0
   12.3163  -10.7485   20.7293 C   0  0  0  0  0  0  0  0  0  0  0  0
   11.6334  -11.2525   21.8098 C   0  0  0  0  0  0  0  0  0  0  0  0
  1  2  1  0
  2  3  1  0
  1  4  1  0
  3  5  1  0
  3  6  1  0
  5  7  1  6
  4  8  1  0
  5  8  1  0
  8  9  1  0
  9 10  1  0
  7 11  1  0
 10 11  1  0
 10 12  1  0
 12 13  1  0
 12 14  2  0
  6 15  2  3
 15 16  1  0
 16 17  1  0
 17 18  1  0
 16 19  1  0
 19 20  1  0
 18 21  1  0
 20 21  1  0
M  END
$$$$
8
     RDKit          3D

 12 13  0  0  0  0  0  0  0  0999 V2000
   21.5628  -13.3263   25.6933 C   0  0  0  0  0  0  0  0  0  0  0  0
   20.3055  -13.6259   25.6650 C   0  0  0  0  0  0  0  0  0  0  0  0
   22.3481  -13.7169   24.5586 C   0  0  0  0  0  0  0  0  0  0  0  0
   21.7687  -14.4086   23.4967 C   0  0  0  0  0  0  0  0  0  0  0  0
   20.3617  -14.4792   23.6552 C   0  0  0  0  0  0  0  0  0  0  0  0
   19.6518  -14.2125   24.6575 C   0  0  2  0  0  0  0  0  0  0  0  0
   19.5121  -14.9646   22.5653 C   0  0  2  0  0  0  0  0  0  0  0  0
   19.6057  -14.6584   21.2060 C   0  0  0  0  0  0  0  0  0  0  0  0
   17.9649  -14.6362   22.9909 C   0  0  0  0  0  0  0  0  0  0  0  0
   19.3857  -13.1559   21.0743 C   0  0  0  0  0  0  0  0  0  0  0  0
   20.0170  -12.5778   19.8859 C   0  0  0  0  0  0  0  0  0  0  0  0
   18.2546  -14.5198   24.4778 C   0  0  0  0  0  0  0  0  0  0  0  0
  1  2  1  0
  1  3  1  0
  3  4  1  0
  4  5  1  0
  6  2  1  6
  5  6  1  0
  5  7  1  0
  7  8  1  6
  7  9  1  0
  8 10  1  0
 10 11  1  0
  6 12  1  0
  9 12  1  0
M  END
$$$$
80
     RDKit          3D

 21 23  0  0  0  0  0  0  0  0999 V2000
   20.1885  -12.8464   20.6593 C   0  0  0  0  0  0  0  0  0  0  0  0
   19.8070  -11.9017   19.7794 C   0  0  0  0  0  0  0  0  0  0  0  0
   19.0681  -13.2738   21.5665 C   0  0  1  0  0  0  0  0  0  0  0  0
   18.3123  -11.8377   19.6581 C   0  0  0  0  0  0  0  0  0  0  0  0
   17.8863  -12.6873   20.8199 C   0  0  2  0  0  0  0  0  0  0  0  0
   16.4339  -12.8276   21.2078 C   0  0  2  0  0  0  0  0  0  0  0  0
   15.4755  -12.0298   20.7067 C   0  0  0  0  0  0  0  0  0  0  0  0
   14.1050  -12.1117   21.1088 C   0  0  0  0  0  0  0  0  0  0  0  0
   18.9214  -14.3804   22.3537 C   0  0  0  0  0  0  0  0  0  0  0  0
   16.0378  -13.7983   22.1962 N   0  0  0  0  0  0  0  0  0  0  0  0
   13.8222  -13.1114   22.0255 N   0  0  0  0  0  0  0  0  0  0  0  0
   14.6389  -14.0045   22.3416 C   0  0  0  0  0  0  0  0  0  0  0  0
   18.7971  -15.5831   22.1114 O   0  0  0  0  0  0  0  0  0  0  0  0
   18.7950  -13.9638   23.8162 N   0  0  0  0  0  0  0  0  0  0  0  0
   18.6714  -14.9985   24.7926 C   0  0  2  0  0  0  0  0  0  0  0  0
   17.7276  -15.8100   24.9473 C   0  0  0  0  0  0  0  0  0  0  0  0
   17.7836  -16.8781   25.8877 C   0  0  0  0  0  0  0  0  0  0  0  0
   19.7279  -15.0885   25.7840 C   0  0  2  0  0  0  0  0  0  0  0  0
   19.7567  -16.0027   26.7599 C   0  0  0  0  0  0  0  0  0  0  0  0
   18.7714  -16.9222   26.7543 C   0  0  0  0  0  0  0  0  0  0  0  0
   20.8658  -13.8188   25.7539 Cl  0  0  0  0  0  0  0  0  0  0  0  0
  1  2  1  0
  1  3  1  0
  2  4  1  0
  3  5  1  0
  5  4  1  1
  5  6  1  0
  6  7  1  1
  7  8  1  0
  3  9  1  6
  6 10  1  0
  8 11  1  0
 10 12  1  0
 11 12  1  0
  9 13  2  0
  9 14  1  0
 15 14  1  1
 15 16  1  0
 16 17  1  0
 15 18  1  0
 18 19  1  0
 17 20  1  0
 19 20  1  0
 18 21  1  1
M  END
$$$$
81
     RDKit          3D

 21 24  0  0  0  0  0  0  0  0999 V2000
   19.7530  -12.0841   19.7492 C   0  0  0  0  0  0  0  0  0  0  0  0
   18.4622  -12.0998   19.9560 C   0  0  0  0  0  0  0  0  0  0  0  0
   17.4315  -11.3794   19.3805 N   0  0  0  0  0  0  0  0  0  0  0  0
   17.8566  -13.0075   20.9578 C   0  0  2  0  0  0  0  0  0  0  0  0
   18.8644  -13.9420   21.4961 C   0  0  1  0  0  0  0  0  0  0  0  0
   16.2268  -11.6497   19.8942 C   0  0  2  0  0  0  0  0  0  0  0  0
   16.4990  -12.7074   20.9302 C   0  0  2  0  0  0  0  0  0  0  0  0
   20.0913  -13.8551   21.3986 C   0  0  1  0  0  0  0  0  0  0  0  0
   20.9579  -14.7277   22.1904 O   0  0  0  0  0  0  0  0  0  0  0  0
   15.4065  -13.0531   21.8393 C   0  0  0  0  0  0  0  0  0  0  0  0
   18.1741  -14.8923   22.6728 C   0  0  0  0  0  0  0  0  0  0  0  0
   20.5998  -14.9776   23.5345 C   0  0  2  0  0  0  0  0  0  0  0  0
   20.6349  -13.0697   20.4066 C   0  0  0  0  0  0  0  0  0  0  0  0
   14.8923  -11.2402   19.5891 C   0  0  0  0  0  0  0  0  0  0  0  0
   17.0586  -15.2583   22.6954 O   0  0  0  0  0  0  0  0  0  0  0  0
   19.1009  -15.2323   23.6690 C   0  0  0  0  0  0  0  0  0  0  0  0
   20.9713  -13.7381   24.4546 C   0  0  0  0  0  0  0  0  0  0  0  0
   20.2839  -13.7771   25.7786 O   0  0  0  0  0  0  0  0  0  0  0  0
   14.1228  -12.5673   21.4341 C   0  0  1  0  0  0  0  0  0  0  0  0
   12.9723  -12.9044   22.3225 N   0  0  0  0  0  0  0  0  0  0  0  0
   13.8904  -11.6276   20.4551 C   0  0  0  0  0  0  0  0  0  0  0  0
  1  2  1  0
  2  3  1  0
  4  2  1  6
  4  5  1  0
  3  6  1  0
  4  7  1  0
  6  7  1  0
  5  8  1  0
  8  9  1  0
  7 10  1  1
  5 11  1  1
  9 12  1  0
  1 13  1  0
  8 13  1  6
  6 14  1  6
 11 15  2  0
 11 16  1  0
 12 16  1  0
 12 17  1  1
 17 18  1  0
 10 19  1  0
 19 20  1  1
 14 21  1  0
 19 21  1  0
M  END
$$$$
82
     RDKit          3D

 21 23  0  0  0  0  0  0  0  0999 V2000
   20.3470  -12.1501   19.8558 C   0  0  0  0  0  0  0  0  0  0  0  0
   19.8317  -12.8515   20.8502 C   0  0  2  0  0  0  0  0  0  0  0  0
   20.4231  -13.7341   21.6259 N   0  0  0  0  0  0  0  0  0  0  0  0
   18.3790  -13.2330   20.8422 C   0  0  2  0  0  0  0  0  0  0  0  0
   17.3228  -12.5814   20.2434 C   0  0  0  0  0  0  0  0  0  0  0  0
   19.5536  -14.4656   22.3517 C   0  0  1  0  0  0  0  0  0  0  0  0
   18.1728  -14.2570   21.7973 N   0  0  0  0  0  0  0  0  0  0  0  0
   16.9605  -14.7468   22.1897 C   0  0  0  0  0  0  0  0  0  0  0  0
   19.8805  -15.4718   23.3285 C   0  0  0  0  0  0  0  0  0  0  0  0
   16.9037  -15.6876   22.9920 O   0  0  0  0  0  0  0  0  0  0  0  0
   20.1827  -14.8963   24.6387 C   0  0  0  0  0  0  0  0  0  0  0  0
   19.9479  -15.5069   25.7753 C   0  0  0  0  0  0  0  0  0  0  0  0
   15.8395  -14.1339   21.6323 C   0  0  0  0  0  0  0  0  0  0  0  0
   20.7457  -13.5010   24.6499 C   0  0  0  0  0  0  0  0  0  0  0  0
   16.0038  -13.0517   20.6630 C   0  0  2  0  0  0  0  0  0  0  0  0
   20.2303  -14.7902   26.9258 C   0  0  0  0  0  0  0  0  0  0  0  0
   20.8310  -13.5839   27.0268 C   0  0  0  0  0  0  0  0  0  0  0  0
   21.1524  -13.0269   25.8925 C   0  0  0  0  0  0  0  0  0  0  0  0
   14.5971  -12.4985   19.9774 C   0  0  0  0  0  0  0  0  0  0  0  0
   14.5462  -12.6072   18.7792 O   0  0  0  0  0  0  0  0  0  0  0  0
   13.7172  -11.9770   20.7575 N   0  0  0  0  0  0  0  0  0  0  0  0
  2  1  1  6
  2  3  1  0
  2  4  1  0
  4  5  1  1
  3  6  1  0
  4  7  1  0
  6  7  1  0
  7  8  1  0
  6  9  1  6
  8 10  1  0
  9 11  1  0
 11 12  1  0
  8 13  1  0
 11 14  1  0
  5 15  1  0
 13 15  1  0
 12 16  1  0
 16 17  1  0
 14 18  1  0
 17 18  1  0
 15 19  1  6
 19 20  2  0
 19 21  1  0
M  END
$$$$
83
     RDKit          3D

 21 23  0  0  0  0  0  0  0  0999 V2000
   21.3798  -13.0882   26.4702 C   0  0  0  0  0  0  0  0  0  0  0  0
   20.7808  -13.7332   25.4153 C   0  0  2  0  0  0  0  0  0  0  0  0
   19.6965  -14.7349   25.6834 C   0  0  0  0  0  0  0  0  0  0  0  0
   19.2569  -15.4684   24.7681 N   0  0  0  0  0  0  0  0  0  0  0  0
   18.0942  -16.3467   24.8593 C   0  0  0  0  0  0  0  0  0  0  0  0
   19.7438  -15.1777   23.4215 C   0  0  1  0  0  0  0  0  0  0  0  0
   19.2730  -15.6509   22.2465 O   0  0  0  0  0  0  0  0  0  0  0  0
   18.3005  -14.8690   21.6484 C   0  0  1  0  0  0  0  0  0  0  0  0
   21.1880  -13.5843   24.0557 O   0  0  0  0  0  0  0  0  0  0  0  0
   20.4321  -14.1308   23.0817 C   0  0  0  0  0  0  0  0  0  0  0  0
   17.1640  -14.5236   22.4278 C   0  0  0  0  0  0  0  0  0  0  0  0
   16.2422  -13.5486   21.7495 C   0  0  0  0  0  0  0  0  0  0  0  0
   18.7033  -13.6136   20.9424 C   0  0  1  0  0  0  0  0  0  0  0  0
   20.1733  -13.5405   20.6534 C   0  0  2  0  0  0  0  0  0  0  0  0
   20.7841  -13.1816   22.0236 C   0  0  0  0  0  0  0  0  0  0  0  0
   17.7265  -13.0753   20.1875 C   0  0  0  0  0  0  0  0  0  0  0  0
   16.5804  -12.8223   20.7363 C   0  0  1  0  0  0  0  0  0  0  0  0
   15.6171  -11.8353   20.1541 C   0  0  0  0  0  0  0  0  0  0  0  0
   15.4331  -11.8235   18.8345 N   0  0  0  0  0  0  0  0  0  0  0  0
   15.2661  -10.7448   20.9045 N   0  0  0  0  0  0  0  0  0  0  0  0
   20.2853  -12.3435   19.7676 C   0  0  0  0  0  0  0  0  0  0  0  0
  2  1  1  1
  2  3  1  0
  3  4  1  0
  4  5  1  0
  4  6  1  0
  6  7  1  6
  7  8  1  0
  2  9  1  0
  6 10  1  0
  9 10  1  0
  8 11  1  1
 11 12  1  0
  8 13  1  0
 13 14  1  0
 10 15  1  0
 14 15  1  0
 13 16  1  6
 12 17  1  0
 16 17  1  0
 17 18  1  6
 18 19  1  0
 18 20  2  0
 14 21  1  6
M  END
$$$$
84
     RDKit          3D

 21 23  0  0  0  0  0  0  0  0999 V2000
   20.3470  -12.1501   19.8558 C   0  0  0  0  0  0  0  0  0  0  0  0
   19.8317  -12.8515   20.8502 C   0  0  2  0  0  0  0  0  0  0  0  0
   20.4231  -13.7341   21.6259 N   0  0  0  0  0  0  0  0  0  0  0  0
   18.3790  -13.2330   20.8422 C   0  0  2  0  0  0  0  0  0  0  0  0
   19.5619  -14.3285   22.4854 N   0  0  0  0  0  0  0  0  0  0  0  0
   17.3294  -12.5449   20.1773 C   0  0  0  0  0  0  0  0  0  0  0  0
   18.2565  -14.0336   21.9943 N   0  0  0  0  0  0  0  0  0  0  0  0
   17.1011  -14.6713   22.6113 C   0  0  0  0  0  0  0  0  0  0  0  0
   17.2222  -15.5069   23.5158 N   0  0  0  0  0  0  0  0  0  0  0  0
   17.4360  -16.8497   23.3583 C   0  0  0  0  0  0  0  0  0  0  0  0
   15.9355  -14.5638   21.9785 O   0  0  0  0  0  0  0  0  0  0  0  0
   17.2480  -15.0941   24.8970 C   0  0  0  0  0  0  0  0  0  0  0  0
   15.9379  -12.6623   20.3228 C   0  0  0  0  0  0  0  0  0  0  0  0
   17.8154  -17.5064   24.5556 C   0  0  0  0  0  0  0  0  0  0  0  0
   17.8123  -11.4461   19.3317 O   0  0  0  0  0  0  0  0  0  0  0  0
   15.1279  -11.5944   20.6768 C   0  0  0  0  0  0  0  0  0  0  0  0
   17.8422  -16.3689   25.5808 C   0  0  0  0  0  0  0  0  0  0  0  0
   13.9393  -11.6712   20.9911 C   0  0  0  0  0  0  0  0  0  0  0  0
   13.2116  -12.7973   20.6468 C   0  0  0  0  0  0  0  0  0  0  0  0
   15.1732  -13.7075   19.8655 C   0  0  0  0  0  0  0  0  0  0  0  0
   13.8354  -13.8288   20.0178 C   0  0  0  0  0  0  0  0  0  0  0  0
  2  1  1  6
  2  3  1  0
  2  4  1  0
  3  5  1  0
  4  6  1  1
  4  7  1  0
  5  7  1  0
  7  8  1  0
  8  9  1  0
  9 10  1  0
  8 11  2  0
  9 12  1  0
  6 13  1  0
 10 14  1  0
  6 15  2  0
 13 16  1  0
 12 17  1  0
 14 17  1  0
 16 18  1  0
 18 19  1  0
 13 20  1  0
 19 21  1  0
 20 21  1  0
M  END
$$$$
85
     RDKit          3D

 21 23  0  0  0  0  0  0  0  0999 V2000
   21.3798  -13.0882   26.4702 C   0  0  0  0  0  0  0  0  0  0  0  0
   20.7808  -13.7332   25.4153 C   0  0  2  0  0  0  0  0  0  0  0  0
   19.6965  -14.7349   25.6834 C   0  0  0  0  0  0  0  0  0  0  0  0
   19.2569  -15.4684   24.7681 N   0  0  0  0  0  0  0  0  0  0  0  0
   18.0942  -16.3467   24.8593 C   0  0  0  0  0  0  0  0  0  0  0  0
   19.7438  -15.1777   23.4215 C   0  0  1  0  0  0  0  0  0  0  0  0
   19.2730  -15.6509   22.2465 O   0  0  0  0  0  0  0  0  0  0  0  0
   18.3005  -14.8690   21.6484 C   0  0  1  0  0  0  0  0  0  0  0  0
   21.1880  -13.5843   24.0557 O   0  0  0  0  0  0  0  0  0  0  0  0
   20.4321  -14.1308   23.0817 C   0  0  0  0  0  0  0  0  0  0  0  0
   17.1640  -14.5236   22.4278 C   0  0  0  0  0  0  0  0  0  0  0  0
   16.2422  -13.5486   21.7495 C   0  0  2  0  0  0  0  0  0  0  0  0
   18.7033  -13.6136   20.9424 C   0  0  2  0  0  0  0  0  0  0  0  0
   17.9511  -12.6538   20.6108 C   0  0  0  0  0  0  0  0  0  0  0  0
   16.6929  -12.5768   21.0853 C   0  0  1  0  0  0  0  0  0  0  0  0
   20.1322  -13.7856   20.2964 F   0  0  0  0  0  0  0  0  0  0  0  0
   18.4528  -11.6600   19.6826 F   0  0  0  0  0  0  0  0  0  0  0  0
   15.8627  -11.5077   20.6329 C   0  0  0  0  0  0  0  0  0  0  0  0
   14.4473  -11.8078   20.3867 C   0  0  0  0  0  0  0  0  0  0  0  0
   13.7550  -12.3941   21.4176 C   0  0  0  0  0  0  0  0  0  0  0  0
   14.7524  -13.7077   22.0328 C   0  0  0  0  0  0  0  0  0  0  0  0
  2  1  1  1
  2  3  1  0
  3  4  1  0
  4  5  1  0
  4  6  1  0
  6  7  1  6
  8  7  1  1
  2  9  1  0
  6 10  1  0
  9 10  1  0
  8 11  1  0
 12 11  1  1
  8 13  1  0
 13 14  1  0
 12 15  1  0
 14 15  1  0
 13 16  1  6
 14 17  1  0
 15 18  1  6
 18 19  1  0
 19 20  1  0
 12 21  1  0
 20 21  1  0
M  END
$$$$
86
     RDKit          3D

 21 24  0  0  0  0  0  0  0  0999 V2000
   20.3470  -12.1501   19.8558 C   0  0  0  0  0  0  0  0  0  0  0  0
   19.8317  -12.8515   20.8502 C   0  0  2  0  0  0  0  0  0  0  0  0
   20.4231  -13.7341   21.6259 N   0  0  0  0  0  0  0  0  0  0  0  0
   18.3790  -13.2330   20.8422 C   0  0  2  0  0  0  0  0  0  0  0  0
   19.5619  -14.3285   22.4854 N   0  0  0  0  0  0  0  0  0  0  0  0
   17.3294  -12.5449   20.1773 C   0  0  0  0  0  0  0  0  0  0  0  0
   18.2565  -14.0336   21.9943 N   0  0  0  0  0  0  0  0  0  0  0  0
   17.1011  -14.6713   22.6113 C   0  0  0  0  0  0  0  0  0  0  0  0
   17.2222  -15.5069   23.5158 N   0  0  0  0  0  0  0  0  0  0  0  0
   17.4360  -16.8497   23.3583 C   0  0  0  0  0  0  0  0  0  0  0  0
   15.9355  -14.5638   21.9785 O   0  0  0  0  0  0  0  0  0  0  0  0
   17.2480  -15.0941   24.8970 C   0  0  0  0  0  0  0  0  0  0  0  0
   17.8069  -17.5107   24.5048 C   0  0  0  0  0  0  0  0  0  0  0  0
   17.7603  -16.3433   25.5662 C   0  0  0  0  0  0  0  0  0  0  0  0
   17.8592  -11.6341   19.1860 C   0  0  0  0  0  0  0  0  0  0  0  0
   15.9144  -12.5142   20.4526 N   0  0  0  0  0  0  0  0  0  0  0  0
   15.0927  -12.9116   19.5155 C   0  0  0  0  0  0  0  0  0  0  0  0
   15.3042  -11.2728   21.1320 C   0  0  0  0  0  0  0  0  0  0  0  0
   13.8890  -11.5540   21.3914 C   0  0  0  0  0  0  0  0  0  0  0  0
   19.3759  -11.4580   19.0361 C   0  0  0  0  0  0  0  0  0  0  0  0
   13.6586  -12.6644   20.2114 C   0  0  0  0  0  0  0  0  0  0  0  0
  1  2  1  0
  2  3  1  6
  2  4  1  0
  3  5  1  0
  4  6  1  0
  4  7  1  1
  5  7  1  0
  7  8  1  0
  8  9  1  0
  9 10  1  0
  8 11  2  0
  9 12  1  0
 10 13  1  0
 12 14  1  0
 13 14  1  0
  6 15  2  0
  6 16  1  0
 16 17  1  0
 16 18  1  0
 18 19  1  0
  1 20  2  0
 15 20  1  0
 17 21  1  0
 19 21  1  0
M  END
$$$$
87
     RDKit          3D

 21 23  0  0  0  0  0  0  0  0999 V2000
   20.1096  -12.1790   19.7698 C   0  0  0  0  0  0  0  0  0  0  0  0
   18.8964  -11.7678   19.4847 C   0  0  0  0  0  0  0  0  0  0  0  0
   17.9814  -12.3717   20.5224 C   0  0  0  0  0  0  0  0  0  0  0  0
   20.5540  -13.0047   20.7245 C   0  0  0  0  0  0  0  0  0  0  0  0
   18.2987  -13.1701   21.5413 C   0  0  2  0  0  0  0  0  0  0  0  0
   16.3231  -12.1644   20.6503 C   0  0  1  0  0  0  0  0  0  0  0  0
   15.8280  -11.0164   20.1393 N   0  0  0  0  0  0  0  0  0  0  0  0
   19.6212  -13.4774   21.6322 C   0  0  0  0  0  0  0  0  0  0  0  0
   14.4668  -11.0258   20.4042 C   0  0  0  0  0  0  0  0  0  0  0  0
   20.1937  -14.4763   22.8681 C   0  0  0  0  0  0  0  0  0  0  0  0
   20.2457  -13.8362   24.1186 C   0  0  0  0  0  0  0  0  0  0  0  0
   19.9740  -14.6740   25.3128 C   0  0  1  0  0  0  0  0  0  0  0  0
   15.5469  -13.1104   21.1567 N   0  0  0  0  0  0  0  0  0  0  0  0
   15.8300  -14.2965   21.6909 C   0  0  0  0  0  0  0  0  0  0  0  0
   17.2494  -14.0101   22.3522 C   0  0  0  0  0  0  0  0  0  0  0  0
   19.1162  -15.7445   25.2762 C   0  0  0  0  0  0  0  0  0  0  0  0
   21.2725  -14.9314   25.9547 C   0  0  0  0  0  0  0  0  0  0  0  0
   14.3318  -12.3155   20.8936 N   0  0  0  0  0  0  0  0  0  0  0  0
   13.0846  -12.9056   21.4548 C   0  0  0  0  0  0  0  0  0  0  0  0
   21.8445  -13.8387   26.6852 C   0  0  0  0  0  0  0  0  0  0  0  0
   21.1074  -12.9622   27.1036 C   0  0  0  0  0  0  0  0  0  0  0  0
  1  2  1  0
  2  3  1  0
  1  4  1  0
  3  5  1  0
  3  6  1  0
  6  7  1  6
  4  8  1  0
  5  8  1  0
  7  9  1  0
  8 10  1  0
 10 11  1  0
 11 12  1  0
  6 13  1  0
 13 14  1  0
  5 15  1  6
 14 15  1  0
 12 16  1  6
 12 17  1  0
  9 18  1  0
 13 18  1  0
 18 19  1  0
 17 20  1  0
 20 21  1  0
M  END
$$$$
88
     RDKit          3D

 21 23  0  0  0  0  0  0  0  0999 V2000
   20.1096  -12.1790   19.7698 C   0  0  0  0  0  0  0  0  0  0  0  0
   18.8964  -11.7678   19.4847 C   0  0  0  0  0  0  0  0  0  0  0  0
   17.9814  -12.3717   20.5224 C   0  0  0  0  0  0  0  0  0  0  0  0
   20.5540  -13.0047   20.7245 C   0  0  0  0  0  0  0  0  0  0  0  0
   18.2987  -13.1701   21.5413 C   0  0  1  0  0  0  0  0  0  0  0  0
   16.3231  -12.1644   20.6503 C   0  0  0  0  0  0  0  0  0  0  0  0
   17.3735  -13.7092   22.4241 O   0  0  0  0  0  0  0  0  0  0  0  0
   19.6680  -13.5717   21.7286 C   0  0  0  0  0  0  0  0  0  0  0  0
   19.9866  -14.3940   22.7960 C   0  0  0  0  0  0  0  0  0  0  0  0
   19.2724  -14.4647   23.9158 N   0  0  0  0  0  0  0  0  0  0  0  0
   17.8282  -14.3486   23.5732 C   0  0  0  0  0  0  0  0  0  0  0  0
   19.7099  -14.5481   25.2257 C   0  0  0  0  0  0  0  0  0  0  0  0
   20.6678  -13.7001   25.6328 C   0  0  0  0  0  0  0  0  0  0  0  0
   19.2971  -15.6509   25.8360 O   0  0  0  0  0  0  0  0  0  0  0  0
   15.5397  -12.3613   21.3247 N   0  0  0  0  0  0  0  0  0  0  0  0
   14.1307  -12.0909   21.1562 C   0  0  1  0  0  0  0  0  0  0  0  0
   13.2858  -12.7648   21.8436 C   0  0  0  0  0  0  0  0  0  0  0  0
   12.0023  -12.2300   22.2996 C   0  0  0  0  0  0  0  0  0  0  0  0
   13.7715  -10.8562   20.7496 N   0  0  0  0  0  0  0  0  0  0  0  0
   11.7100  -10.9859   21.8673 C   0  0  0  0  0  0  0  0  0  0  0  0
   12.5436  -10.3507   21.1184 C   0  0  0  0  0  0  0  0  0  0  0  0
  1  2  1  0
  2  3  1  0
  1  4  1  0
  3  5  1  0
  3  6  1  0
  5  7  1  6
  4  8  1  0
  5  8  1  0
  8  9  1  0
  9 10  1  0
  7 11  1  0
 10 11  1  0
 10 12  1  0
 12 13  1  0
 12 14  2  0
  6 15  2  3
 15 16  1  0
 16 17  1  1
 17 18  1  0
 16 19  1  0
 18 20  1  0
 19 21  1  0
 20 21  1  0
M  END
$$$$
89
     RDKit          3D

 21 23  0  0  0  0  0  0  0  0999 V2000
   21.3798  -13.0882   26.4702 C   0  0  0  0  0  0  0  0  0  0  0  0
   20.7808  -13.7332   25.4153 C   0  0  2  0  0  0  0  0  0  0  0  0
   19.6965  -14.7349   25.6834 C   0  0  0  0  0  0  0  0  0  0  0  0
   19.2569  -15.4684   24.7681 N   0  0  0  0  0  0  0  0  0  0  0  0
   18.0942  -16.3467   24.8593 C   0  0  0  0  0  0  0  0  0  0  0  0
   19.7438  -15.1777   23.4215 C   0  0  1  0  0  0  0  0  0  0  0  0
   19.2730  -15.6509   22.2465 O   0  0  0  0  0  0  0  0  0  0  0  0
   18.3005  -14.8690   21.6484 C   0  0  1  0  0  0  0  0  0  0  0  0
   21.1880  -13.5843   24.0557 O   0  0  0  0  0  0  0  0  0  0  0  0
   20.4321  -14.1308   23.0817 C   0  0  0  0  0  0  0  0  0  0  0  0
   17.1640  -14.5236   22.4278 C   0  0  0  0  0  0  0  0  0  0  0  0
   16.2422  -13.5486   21.7495 C   0  0  0  0  0  0  0  0  0  0  0  0
   18.7033  -13.6136   20.9424 C   0  0  1  0  0  0  0  0  0  0  0  0
   20.1733  -13.5405   20.6534 C   0  0  2  0  0  0  0  0  0  0  0  0
   20.7841  -13.1816   22.0236 C   0  0  0  0  0  0  0  0  0  0  0  0
   17.7265  -13.0753   20.1875 C   0  0  0  0  0  0  0  0  0  0  0  0
   16.5804  -12.8223   20.7363 C   0  0  1  0  0  0  0  0  0  0  0  0
   15.6171  -11.8353   20.1541 C   0  0  0  0  0  0  0  0  0  0  0  0
   15.4331  -11.8235   18.8345 N   0  0  0  0  0  0  0  0  0  0  0  0
   15.2661  -10.7448   20.9045 N   0  0  0  0  0  0  0  0  0  0  0  0
   20.4898  -12.9537   19.5648 F   0  0  0  0  0  0  0  0  0  0  0  0
  2  1  1  1
  2  3  1  0
  3  4  1  0
  4  5  1  0
  4  6  1  0
  6  7  1  6
  7  8  1  0
  2  9  1  0
  6 10  1  0
  9 10  1  0
  8 11  1  1
 11 12  1  0
  8 13  1  0
 13 14  1  0
 10 15  1  0
 14 15  1  0
 13 16  1  6
 12 17  1  0
 16 17  1  0
 17 18  1  6
 18 19  1  0
 18 20  2  0
 14 21  1  6
M  END
$$$$
9
     RDKit          3D

 12 13  0  0  0  0  0  0  0  0999 V2000
   21.3798  -13.0882   26.4702 C   0  0  0  0  0  0  0  0  0  0  0  0
   20.7808  -13.7332   25.4153 C   0  0  2  0  0  0  0  0  0  0  0  0
   19.6965  -14.7349   25.6834 C   0  0  0  0  0  0  0  0  0  0  0  0
   19.2569  -15.4684   24.7681 N   0  0  0  0  0  0  0  0  0  0  0  0
   18.0942  -16.3467   24.8593 C   0  0  0  0  0  0  0  0  0  0  0  0
   19.7438  -15.1777   23.4215 C   0  0  2  0  0  0  0  0  0  0  0  0
   19.2730  -15.6509   22.2465 C   0  0  0  0  0  0  0  0  0  0  0  0
   21.0497  -14.3955   23.5437 S   0  0  0  0  0  0  0  0  0  0  0  0
   18.1578  -16.6599   22.4276 C   0  0  0  0  0  0  0  0  0  0  0  0
   17.7093  -16.6133   25.9987 O   0  0  0  0  0  0  0  0  0  0  0  0
   17.6550  -16.8784   23.5700 C   0  0  0  0  0  0  0  0  0  0  0  0
   16.4561  -17.8096   23.8483 N   0  0  0  0  0  0  0  0  0  0  0  0
  2  1  1  1
  2  3  1  0
  3  4  1  0
  4  5  1  0
  4  6  1  0
  6  7  1  6
  2  8  1  0
  6  8  1  0
  7  9  1  0
  5 10  2  0
  5 11  1  0
  9 11  1  0
 11 12  1  0
M  END
$$$$
90
     RDKit          3D

 21 23  0  0  0  0  0  0  0  0999 V2000
   21.3798  -13.0882   26.4702 C   0  0  0  0  0  0  0  0  0  0  0  0
   20.7808  -13.7332   25.4153 C   0  0  2  0  0  0  0  0  0  0  0  0
   19.6965  -14.7349   25.6834 C   0  0  0  0  0  0  0  0  0  0  0  0
   19.2569  -15.4684   24.7681 N   0  0  0  0  0  0  0  0  0  0  0  0
   18.0942  -16.3467   24.8593 C   0  0  0  0  0  0  0  0  0  0  0  0
   19.7438  -15.1777   23.4215 C   0  0  1  0  0  0  0  0  0  0  0  0
   19.2730  -15.6509   22.2465 O   0  0  0  0  0  0  0  0  0  0  0  0
   18.3005  -14.8690   21.6484 C   0  0  1  0  0  0  0  0  0  0  0  0
   21.1880  -13.5843   24.0557 O   0  0  0  0  0  0  0  0  0  0  0  0
   20.4321  -14.1308   23.0817 C   0  0  0  0  0  0  0  0  0  0  0  0
   17.1640  -14.5236   22.4278 C   0  0  0  0  0  0  0  0  0  0  0  0
   16.2422  -13.5486   21.7495 C   0  0  0  0  0  0  0  0  0  0  0  0
   18.7033  -13.6136   20.9424 C   0  0  1  0  0  0  0  0  0  0  0  0
   20.1733  -13.5405   20.6534 C   0  0  2  0  0  0  0  0  0  0  0  0
   20.7841  -13.1816   22.0236 C   0  0  0  0  0  0  0  0  0  0  0  0
   17.7265  -13.0753   20.1875 C   0  0  0  0  0  0  0  0  0  0  0  0
   20.6404  -13.0331   19.6109 C   0  0  0  0  0  0  0  0  0  0  0  0
   16.5846  -12.8039   20.7384 C   0  0  1  0  0  0  0  0  0  0  0  0
   15.5373  -11.8922   20.1463 C   0  0  0  0  0  0  0  0  0  0  0  0
   15.4665  -11.8634   18.8512 N   0  0  0  0  0  0  0  0  0  0  0  0
   14.6592  -11.1905   20.9114 C   0  0  0  0  0  0  0  0  0  0  0  0
  2  1  1  1
  2  3  1  0
  3  4  1  0
  4  5  1  0
  4  6  1  0
  6  7  1  6
  7  8  1  0
  2  9  1  0
  6 10  1  0
  9 10  1  0
  8 11  1  1
 11 12  1  0
  8 13  1  0
 13 14  1  0
 10 15  1  0
 14 15  1  0
 13 16  1  6
 14 17  1  6
 12 18  1  0
 16 18  1  0
 18 19  1  6
 19 20  2  0
 19 21  1  0
M  END
$$$$
91
     RDKit          3D

 21 24  0  0  0  0  0  0  0  0999 V2000
   20.1096  -12.1790   19.7698 C   0  0  0  0  0  0  0  0  0  0  0  0
   18.8964  -11.7678   19.4847 C   0  0  0  0  0  0  0  0  0  0  0  0
   17.9814  -12.3717   20.5224 C   0  0  0  0  0  0  0  0  0  0  0  0
   20.5540  -13.0047   20.7245 C   0  0  0  0  0  0  0  0  0  0  0  0
   18.2987  -13.1701   21.5413 C   0  0  2  0  0  0  0  0  0  0  0  0
   16.3231  -12.1644   20.6503 C   0  0  1  0  0  0  0  0  0  0  0  0
   15.8280  -11.0164   20.1393 N   0  0  0  0  0  0  0  0  0  0  0  0
   19.6212  -13.4774   21.6322 C   0  0  0  0  0  0  0  0  0  0  0  0
   14.4668  -11.0258   20.4042 C   0  0  0  0  0  0  0  0  0  0  0  0
   20.1937  -14.4763   22.8681 C   0  0  0  0  0  0  0  0  0  0  0  0
   20.2457  -13.8362   24.1186 C   0  0  0  0  0  0  0  0  0  0  0  0
   15.4432  -13.1236   21.0730 C   0  0  1  0  0  0  0  0  0  0  0  0
   15.6036  -14.3832   21.5394 N   0  0  0  0  0  0  0  0  0  0  0  0
   14.2239  -12.3567   20.9458 N   0  0  0  0  0  0  0  0  0  0  0  0
   12.8404  -12.8779   21.2555 C   0  0  0  0  0  0  0  0  0  0  0  0
   19.5259  -14.5841   25.2561 C   0  0  0  0  0  0  0  0  0  0  0  0
   21.0086  -12.8679   24.6149 C   0  0  0  0  0  0  0  0  0  0  0  0
   21.1624  -12.7067   26.0332 C   0  0  0  0  0  0  0  0  0  0  0  0
   19.9726  -14.4616   26.4033 C   0  0  0  0  0  0  0  0  0  0  0  0
   20.8645  -13.5236   26.8386 C   0  0  0  0  0  0  0  0  0  0  0  0
   16.9090  -14.5265   21.9769 C   0  0  0  0  0  0  0  0  0  0  0  0
  1  2  1  0
  2  3  1  0
  1  4  1  0
  3  5  1  0
  3  6  1  0
  6  7  1  6
  4  8  1  0
  5  8  1  0
  7  9  1  0
  8 10  1  0
 10 11  1  0
  6 12  1  0
 12 13  1  1
  9 14  1  0
 12 14  1  0
 14 15  1  0
 11 16  1  0
 11 17  1  0
 17 18  1  0
 16 19  1  0
 18 20  1  0
 19 20  1  0
  5 21  1  6
 13 21  1  0
M  END
$$$$
92
     RDKit          3D

 21 24  0  0  0  0  0  0  0  0999 V2000
   20.1096  -12.1790   19.7698 C   0  0  0  0  0  0  0  0  0  0  0  0
   18.8964  -11.7678   19.4847 C   0  0  0  0  0  0  0  0  0  0  0  0
   17.9814  -12.3717   20.5224 C   0  0  1  0  0  0  0  0  0  0  0  0
   20.5540  -13.0047   20.7245 C   0  0  0  0  0  0  0  0  0  0  0  0
   18.2987  -13.1701   21.5413 C   0  0  2  0  0  0  0  0  0  0  0  0
   16.4549  -11.9251   20.4636 C   0  0  2  0  0  0  0  0  0  0  0  0
   19.6516  -13.5275   21.6317 C   0  0  2  0  0  0  0  0  0  0  0  0
   17.1204  -13.5851   22.2228 C   0  0  2  0  0  0  0  0  0  0  0  0
   19.9542  -14.3936   22.7980 C   0  0  0  0  0  0  0  0  0  0  0  0
   17.4108  -14.7196   23.1443 N   0  0  0  0  0  0  0  0  0  0  0  0
   16.0914  -13.0073   21.6386 C   0  0  1  0  0  0  0  0  0  0  0  0
   14.6561  -13.0981   22.0169 N   0  0  0  0  0  0  0  0  0  0  0  0
   15.4983  -11.2603   19.8834 C   0  0  0  0  0  0  0  0  0  0  0  0
   18.7140  -14.9388   23.4857 C   0  0  1  0  0  0  0  0  0  0  0  0
   13.7984  -12.3708   21.2789 C   0  0  0  0  0  0  0  0  0  0  0  0
   14.1699  -11.5183   20.2630 C   0  0  0  0  0  0  0  0  0  0  0  0
   18.9058  -15.9577   24.6271 C   0  0  1  0  0  0  0  0  0  0  0  0
   19.6769  -15.4261   25.7127 C   0  0  0  0  0  0  0  0  0  0  0  0
   17.5752  -16.2887   25.2347 N   0  0  0  0  0  0  0  0  0  0  0  0
   20.2404  -14.1225   25.7322 C   0  0  0  0  0  0  0  0  0  0  0  0
   21.5547  -13.7592   26.1245 C   0  0  0  0  0  0  0  0  0  0  0  0
  1  2  1  0
  3  2  1  1
  1  4  1  0
  3  5  1  0
  3  6  1  0
  7  4  1  1
  5  7  1  6
  5  8  1  0
  7  9  1  0
  8 10  1  6
  6 11  1  0
  8 11  1  0
 11 12  1  1
  6 13  1  6
 14  9  1  6
 10 14  1  0
 12 15  1  0
 13 16  1  0
 15 16  1  0
 14 17  1  0
 17 18  1  0
 17 19  1  1
 18 20  1  0
 20 21  1  0
M  END
$$$$
93
     RDKit          3D

 21 23  0  0  0  0  0  0  0  0999 V2000
   20.3722  -12.8727   20.5736 C   0  0  0  0  0  0  0  0  0  0  0  0
   19.8961  -11.8796   19.7834 C   0  0  0  0  0  0  0  0  0  0  0  0
   19.4132  -13.5120   21.4506 C   0  0  2  0  0  0  0  0  0  0  0  0
   18.0378  -13.0137   21.4314 C   0  0  1  0  0  0  0  0  0  0  0  0
   17.8407  -12.0857   20.4950 C   0  0  0  0  0  0  0  0  0  0  0  0
   19.9007  -14.5402   22.4549 C   0  0  0  0  0  0  0  0  0  0  0  0
   18.6484  -11.4913   19.6817 N   0  0  0  0  0  0  0  0  0  0  0  0
   16.9654  -13.6764   22.2822 C   0  0  0  0  0  0  0  0  0  0  0  0
   16.2850  -11.9245   20.6311 C   0  0  1  0  0  0  0  0  0  0  0  0
   15.7584  -13.1519   21.9084 N   0  0  0  0  0  0  0  0  0  0  0  0
   20.4556  -14.1951   23.6409 C   0  0  2  0  0  0  0  0  0  0  0  0
   20.2231  -14.9194   24.6689 C   0  0  0  0  0  0  0  0  0  0  0  0
   15.4482  -11.0285   20.3265 O   0  0  0  0  0  0  0  0  0  0  0  0
   14.1770  -11.2674   20.6710 C   0  0  0  0  0  0  0  0  0  0  0  0
   19.5632  -16.0342   24.7392 O   0  0  0  0  0  0  0  0  0  0  0  0
   20.8453  -14.2624   25.6721 C   0  0  2  0  0  0  0  0  0  0  0  0
   18.9529  -16.3996   25.8028 C   0  0  0  0  0  0  0  0  0  0  0  0
   20.8551  -14.6843   27.0606 O   0  0  0  0  0  0  0  0  0  0  0  0
   20.9739  -12.8131   25.6784 C   0  0  0  0  0  0  0  0  0  0  0  0
   20.9749  -12.8870   23.5678 C   0  0  0  0  0  0  0  0  0  0  0  0
   21.3367  -12.3274   24.6916 C   0  0  0  0  0  0  0  0  0  0  0  0
  1  2  1  0
  1  3  1  0
  3  4  1  0
  4  5  1  0
  3  6  1  1
  2  7  1  0
  5  7  1  0
  4  8  1  6
  5  9  1  0
  8 10  1  0
  9 10  1  0
 11  6  1  1
 11 12  1  0
  9 13  1  1
 13 14  1  0
 12 15  1  0
 12 16  1  0
 15 17  1  0
 16 18  1  1
 16 19  1  0
 11 20  1  0
 19 21  1  0
 20 21  1  0
M  END
$$$$
94
     RDKit          3D

 21 21  0  0  0  0  0  0  0  0999 V2000
   20.1653  -11.9611   19.3868 C   0  0  0  0  0  0  0  0  0  0  0  0
   20.0671  -12.5378   20.5982 C   0  0  0  0  0  0  0  0  0  0  0  0
   18.9804  -11.4756   18.7501 C   0  0  0  0  0  0  0  0  0  0  0  0
   18.7283  -12.8514   21.1973 C   0  0  2  0  0  0  0  0  0  0  0  0
   17.7055  -11.8626   19.4564 C   0  0  2  0  0  0  0  0  0  0  0  0
   16.4593  -11.3476   18.8452 O   0  0  0  0  0  0  0  0  0  0  0  0
   15.3626  -12.2420   18.7801 C   0  0  0  0  0  0  0  0  0  0  0  0
   17.5358  -12.3926   20.7330 C   0  0  0  0  0  0  0  0  0  0  0  0
   15.0439  -12.9411   17.7817 C   0  0  0  0  0  0  0  0  0  0  0  0
   14.5250  -12.2095   20.0066 C   0  0  1  0  0  0  0  0  0  0  0  0
   18.7291  -13.5416   22.4918 O   0  0  0  0  0  0  0  0  0  0  0  0
   14.5814  -11.2050   20.9499 C   0  0  0  0  0  0  0  0  0  0  0  0
   19.3525  -14.6936   22.6383 C   0  0  0  0  0  0  0  0  0  0  0  0
   13.1279  -12.3685   19.6015 O   0  0  0  0  0  0  0  0  0  0  0  0
   19.3319  -15.0085   24.0140 C   0  0  1  0  0  0  0  0  0  0  0  0
   19.8788  -14.2230   24.8904 C   0  0  0  0  0  0  0  0  0  0  0  0
   21.1345  -14.1832   25.2280 C   0  0  0  0  0  0  0  0  0  0  0  0
   21.6896  -13.2322   26.2475 C   0  0  0  0  0  0  0  0  0  0  0  0
   18.6055  -16.2069   24.4471 C   0  0  0  0  0  0  0  0  0  0  0  0
   18.6541  -17.3273   23.9418 O   0  0  0  0  0  0  0  0  0  0  0  0
   18.0120  -16.1679   25.7093 N   0  0  0  0  0  0  0  0  0  0  0  0
  1  2  1  0
  1  3  1  0
  2  4  1  0
  3  5  1  0
  5  6  1  1
  6  7  1  0
  4  8  1  0
  5  8  1  0
  7  9  2  0
  7 10  1  0
  4 11  1  1
 10 12  1  6
 11 13  1  0
 10 14  1  0
 15 13  1  1
 15 16  1  0
 16 17  1  0
 17 18  1  0
 15 19  1  0
 19 20  2  0
 19 21  1  0
M  END
$$$$
95
     RDKit          3D

 21 24  0  0  0  0  0  0  0  0999 V2000
   19.7530  -12.0841   19.7492 C   0  0  0  0  0  0  0  0  0  0  0  0
   18.4622  -12.0998   19.9560 C   0  0  0  0  0  0  0  0  0  0  0  0
   17.4315  -11.3794   19.3805 N   0  0  0  0  0  0  0  0  0  0  0  0
   17.8566  -13.0075   20.9578 C   0  0  2  0  0  0  0  0  0  0  0  0
   18.8644  -13.9420   21.4961 C   0  0  2  0  0  0  0  0  0  0  0  0
   16.2268  -11.6497   19.8942 C   0  0  2  0  0  0  0  0  0  0  0  0
   16.4838  -12.7241   20.9585 C   0  0  2  0  0  0  0  0  0  0  0  0
   15.0230  -11.2362   19.4249 N   0  0  0  0  0  0  0  0  0  0  0  0
   15.5383  -13.3226   21.9248 C   0  0  0  0  0  0  0  0  0  0  0  0
   14.2197  -12.7808   21.7005 N   0  0  0  0  0  0  0  0  0  0  0  0
   13.9722  -11.7631   20.3875 C   0  0  0  0  0  0  0  0  0  0  0  0
   20.5622  -12.7670   20.4372 C   0  0  0  0  0  0  0  0  0  0  0  0
   18.2997  -14.8349   22.5934 C   0  0  0  0  0  0  0  0  0  0  0  0
   17.5078  -15.7028   22.3885 O   0  0  0  0  0  0  0  0  0  0  0  0
   20.1729  -13.8830   21.2637 C   0  0  0  0  0  0  0  0  0  0  0  0
   19.0267  -14.9335   23.8021 N   0  0  0  0  0  0  0  0  0  0  0  0
   20.1801  -14.2862   24.1137 C   0  0  0  0  0  0  0  0  0  0  0  0
   18.1816  -15.3597   24.9162 C   0  0  0  0  0  0  0  0  0  0  0  0
   20.6083  -14.5717   25.4453 C   0  0  1  0  0  0  0  0  0  0  0  0
   21.1202  -13.4459   26.2055 C   0  0  0  0  0  0  0  0  0  0  0  0
   19.3223  -15.4134   25.9533 C   0  0  0  0  0  0  0  0  0  0  0  0
  1  2  1  0
  2  3  1  0
  4  2  1  6
  4  5  1  0
  6  3  1  6
  4  7  1  0
  6  7  1  0
  6  8  1  0
  7  9  1  1
  9 10  1  0
  8 11  1  0
 10 11  1  0
  1 12  1  0
  5 13  1  1
 13 14  2  0
  5 15  1  0
 12 15  1  0
 13 16  1  0
 16 17  1  0
 16 18  1  0
 17 19  1  0
 19 20  1  1
 18 21  1  0
 19 21  1  0
M  END
$$$$
96
     RDKit          3D

 21 23  0  0  0  0  0  0  0  0999 V2000
   20.1885  -12.8464   20.6593 C   0  0  0  0  0  0  0  0  0  0  0  0
   19.8070  -11.9017   19.7794 C   0  0  0  0  0  0  0  0  0  0  0  0
   19.0681  -13.2738   21.5665 C   0  0  1  0  0  0  0  0  0  0  0  0
   18.3123  -11.8377   19.6581 C   0  0  0  0  0  0  0  0  0  0  0  0
   17.8863  -12.6873   20.8199 C   0  0  2  0  0  0  0  0  0  0  0  0
   16.4339  -12.8276   21.2078 C   0  0  2  0  0  0  0  0  0  0  0  0
   15.4755  -12.0298   20.7067 C   0  0  0  0  0  0  0  0  0  0  0  0
   14.1050  -12.1117   21.1088 C   0  0  0  0  0  0  0  0  0  0  0  0
   18.9214  -14.3804   22.3537 C   0  0  0  0  0  0  0  0  0  0  0  0
   16.0378  -13.7983   22.1962 N   0  0  0  0  0  0  0  0  0  0  0  0
   13.8222  -13.1114   22.0255 N   0  0  0  0  0  0  0  0  0  0  0  0
   14.6389  -14.0045   22.3416 C   0  0  0  0  0  0  0  0  0  0  0  0
   18.7971  -15.5831   22.1114 O   0  0  0  0  0  0  0  0  0  0  0  0
   18.7950  -13.9638   23.8162 N   0  0  0  0  0  0  0  0  0  0  0  0
   18.6714  -14.9985   24.7926 C   0  0  2  0  0  0  0  0  0  0  0  0
   19.7732  -14.9843   25.8052 C   0  0  0  0  0  0  0  0  0  0  0  0
   17.8144  -15.9584   24.9174 C   0  0  0  0  0  0  0  0  0  0  0  0
   17.8803  -16.9843   25.8193 C   0  0  0  0  0  0  0  0  0  0  0  0
   18.8971  -16.9684   26.7182 C   0  0  0  0  0  0  0  0  0  0  0  0
   19.8649  -15.9755   26.6528 C   0  0  0  0  0  0  0  0  0  0  0  0
   20.7147  -13.7855   25.7848 C   0  0  0  0  0  0  0  0  0  0  0  0
  1  2  1  0
  1  3  1  0
  2  4  1  0
  3  5  1  0
  5  4  1  1
  5  6  1  0
  6  7  1  1
  7  8  1  0
  3  9  1  6
  6 10  1  0
  8 11  1  0
 10 12  1  0
 11 12  1  0
  9 13  2  0
  9 14  1  0
 15 14  1  6
 15 16  1  0
 15 17  1  0
 17 18  1  0
 18 19  1  0
 16 20  1  0
 19 20  1  0
 16 21  1  0
M  END
$$$$
97
     RDKit          3D

 21 23  0  0  0  0  0  0  0  0999 V2000
   20.3470  -12.1501   19.8558 C   0  0  0  0  0  0  0  0  0  0  0  0
   19.8317  -12.8515   20.8502 C   0  0  2  0  0  0  0  0  0  0  0  0
   20.4231  -13.7341   21.6259 N   0  0  0  0  0  0  0  0  0  0  0  0
   18.3790  -13.2330   20.8422 C   0  0  2  0  0  0  0  0  0  0  0  0
   17.3228  -12.5814   20.2434 C   0  0  0  0  0  0  0  0  0  0  0  0
   19.5536  -14.4656   22.3517 C   0  0  1  0  0  0  0  0  0  0  0  0
   18.1728  -14.2570   21.7973 N   0  0  0  0  0  0  0  0  0  0  0  0
   16.9605  -14.7468   22.1897 C   0  0  0  0  0  0  0  0  0  0  0  0
   19.8805  -15.4718   23.3285 C   0  0  0  0  0  0  0  0  0  0  0  0
   16.9037  -15.6876   22.9920 O   0  0  0  0  0  0  0  0  0  0  0  0
   20.1827  -14.8963   24.6387 C   0  0  0  0  0  0  0  0  0  0  0  0
   19.9479  -15.5069   25.7753 C   0  0  0  0  0  0  0  0  0  0  0  0
   15.8395  -14.1339   21.6323 C   0  0  0  0  0  0  0  0  0  0  0  0
   20.7457  -13.5010   24.6499 C   0  0  0  0  0  0  0  0  0  0  0  0
   16.0038  -13.0517   20.6630 C   0  0  2  0  0  0  0  0  0  0  0  0
   20.2303  -14.7902   26.9258 C   0  0  0  0  0  0  0  0  0  0  0  0
   21.1056  -13.1387   25.9944 C   0  0  0  0  0  0  0  0  0  0  0  0
   20.7952  -13.7112   27.0686 C   0  0  0  0  0  0  0  0  0  0  0  0
   14.7412  -12.4605   19.9903 C   0  0  1  0  0  0  0  0  0  0  0  0
   14.0149  -11.4914   20.7721 C   0  0  0  0  0  0  0  0  0  0  0  0
   15.2026  -11.8501   18.7079 N   0  0  0  0  0  0  0  0  0  0  0  0
  2  1  1  6
  2  3  1  0
  2  4  1  0
  4  5  1  1
  3  6  1  0
  4  7  1  0
  6  7  1  0
  7  8  1  0
  6  9  1  6
  8 10  1  0
  9 11  1  0
 11 12  1  0
  8 13  1  0
 11 14  1  0
 15  5  1  6
 13 15  1  0
 12 16  1  0
 14 17  1  0
 16 18  1  0
 17 18  1  0
 15 19  1  0
 19 20  1  1
 19 21  1  0
M  END
$$$$
98
     RDKit          3D

 21 23  0  0  0  0  0  0  0  0999 V2000
   20.3722  -12.8727   20.5736 C   0  0  0  0  0  0  0  0  0  0  0  0
   19.3372  -13.3960   21.3794 C   0  0  0  0  0  0  0  0  0  0  0  0
   20.0016  -11.7242   19.7649 C   0  0  0  0  0  0  0  0  0  0  0  0
   17.9416  -12.8376   21.1857 C   0  0  1  0  0  0  0  0  0  0  0  0
   18.6738  -11.3159   19.6367 N   0  0  0  0  0  0  0  0  0  0  0  0
   17.8070  -11.9511   20.3978 C   0  0  0  0  0  0  0  0  0  0  0  0
   16.3042  -11.6565   20.4478 C   0  0  0  0  0  0  0  0  0  0  0  0
   19.7595  -14.5442   22.4148 C   0  0  0  0  0  0  0  0  0  0  0  0
   19.1982  -14.4145   23.6792 C   0  0  1  0  0  0  0  0  0  0  0  0
   16.6307  -13.4187   21.6558 C   0  0  0  0  0  0  0  0  0  0  0  0
   15.7228  -12.8696   21.1707 C   0  0  1  0  0  0  0  0  0  0  0  0
   14.1488  -12.9871   21.2359 C   0  0  0  0  0  0  0  0  0  0  0  0
   18.0770  -15.1857   24.0941 N   0  0  0  0  0  0  0  0  0  0  0  0
   13.4060  -11.9813   20.6825 N   0  0  0  0  0  0  0  0  0  0  0  0
   17.2907  -15.9362   23.2642 N   0  0  0  0  0  0  0  0  0  0  0  0
   13.6842  -14.0514   21.6046 O   0  0  0  0  0  0  0  0  0  0  0  0
   17.3844  -17.0187   22.9205 O   0  0  0  0  0  0  0  0  0  0  0  0
   17.6949  -15.3308   25.4420 C   0  0  0  0  0  0  0  0  0  0  0  0
   18.8432  -15.9565   26.1831 C   0  0  0  0  0  0  0  0  0  0  0  0
   20.2804  -14.6767   24.7579 C   0  0  0  0  0  0  0  0  0  0  0  0
   20.0335  -15.0810   26.0551 C   0  0  0  0  0  0  0  0  0  0  0  0
  1  2  1  0
  1  3  1  0
  2  4  1  0
  3  5  1  0
  4  6  1  0
  5  6  1  0
  6  7  1  0
  2  8  1  0
  9  8  1  6
  4 10  1  6
  7 11  1  0
 10 11  1  0
 11 12  1  1
  9 13  1  0
 12 14  1  0
 13 15  1  0
 12 16  2  0
 15 17  2  0
 13 18  1  0
 18 19  1  0
  9 20  1  0
 19 21  1  0
 20 21  1  0
M  END
$$$$
99
     RDKit          3D

 22 24  0  0  0  0  0  0  0  0999 V2000
   20.1885  -12.8464   20.6593 C   0  0  0  0  0  0  0  0  0  0  0  0
   19.8070  -11.9017   19.7794 C   0  0  0  0  0  0  0  0  0  0  0  0
   19.0681  -13.2738   21.5665 C   0  0  1  0  0  0  0  0  0  0  0  0
   18.3123  -11.8377   19.6581 C   0  0  0  0  0  0  0  0  0  0  0  0
   17.8863  -12.6873   20.8199 C   0  0  2  0  0  0  0  0  0  0  0  0
   16.4339  -12.8276   21.2078 C   0  0  2  0  0  0  0  0  0  0  0  0
   15.4755  -12.0298   20.7067 C   0  0  0  0  0  0  0  0  0  0  0  0
   14.1050  -12.1117   21.1088 C   0  0  0  0  0  0  0  0  0  0  0  0
   18.9214  -14.3804   22.3537 C   0  0  0  0  0  0  0  0  0  0  0  0
   16.0378  -13.7983   22.1962 N   0  0  0  0  0  0  0  0  0  0  0  0
   13.8222  -13.1114   22.0255 N   0  0  0  0  0  0  0  0  0  0  0  0
   14.6389  -14.0045   22.3416 C   0  0  0  0  0  0  0  0  0  0  0  0
   18.7971  -15.5831   22.1114 O   0  0  0  0  0  0  0  0  0  0  0  0
   18.7950  -13.9638   23.8162 N   0  0  0  0  0  0  0  0  0  0  0  0
   18.6714  -14.9985   24.7926 C   0  0  1  0  0  0  0  0  0  0  0  0
   17.7276  -15.8100   24.9473 C   0  0  0  0  0  0  0  0  0  0  0  0
   17.7836  -16.8781   25.8877 C   0  0  0  0  0  0  0  0  0  0  0  0
   19.9119  -15.3609   25.5908 C   0  0  2  0  0  0  0  0  0  0  0  0
   18.8273  -17.1273   26.6029 C   0  0  0  0  0  0  0  0  0  0  0  0
   18.8363  -18.1730   27.4502 F   0  0  0  0  0  0  0  0  0  0  0  0
   20.0079  -16.3023   26.4637 C   0  0  0  0  0  0  0  0  0  0  0  0
   21.1983  -14.2092   25.3783 Cl  0  0  0  0  0  0  0  0  0  0  0  0
  1  2  1  0
  1  3  1  0
  2  4  1  0
  3  5  1  0
  5  4  1  1
  5  6  1  0
  6  7  1  1
  7  8  1  0
  3  9  1  6
  6 10  1  0
  8 11  1  0
 10 12  1  0
 11 12  1  0
  9 13  2  0
  9 14  1  0
 15 14  1  6
 15 16  1  0
 16 17  1  0
 15 18  1  0
 17 19  1  0
 19 20  1  0
 18 21  1  0
 19 21  1  0
 18 22  1  1
M  END
$$$$
