0
     RDKit          3D

 11 11  0  0  0  0  0  0  0  0999 V2000
   42.6853   -6.5012   12.1148 C   0  0  0  0  0  0  0  0  0  0  0  0
   43.5811   -7.2155   11.8044 C   0  0  0  0  0  0  0  0  0  0  0  0
   42.9769   -5.2229   12.5921 C   0  0  0  0  0  0  0  0  0  0  0  0
   44.2892   -4.9424   12.8446 C   0  0  1  0  0  0  0  0  0  0  0  0
   45.3015   -5.8199   12.4270 C   0  0  1  0  0  0  0  0  0  0  0  0
   46.6025   -5.5033   12.7019 F   0  0  0  0  0  0  0  0  0  0  0  0
   44.9902   -7.0837   11.9022 C   0  0  0  0  0  0  0  0  0  0  0  0
   44.7310   -3.6145   13.3282 C   0  0  0  0  0  0  0  0  0  0  0  0
   44.2805   -2.4154   12.6818 C   0  0  0  0  0  0  0  0  0  0  0  0
   45.1952   -1.2855   12.5513 C   0  0  0  0  0  0  0  0  0  0  0  0
   44.6945   -0.1348   12.7431 C   0  0  0  0  0  0  0  0  0  0  0  0
  1  2  1  0
  1  3  1  0
  3  4  1  0
  4  5  1  0
  5  6  1  1
  2  7  1  0
  5  7  1  0
  4  8  1  6
  8  9  1  0
  9 10  1  0
 10 11  1  0
M  END
$$$$
1
     RDKit          3D

 13 14  0  0  0  0  0  0  0  0999 V2000
   42.6956    1.1982   17.6432 N   0  0  0  0  0  0  0  0  0  0  0  0
   43.3997    1.7705   18.3952 C   0  0  0  0  0  0  0  0  0  0  0  0
   44.7264    1.1136   18.4722 C   0  0  2  0  0  0  0  0  0  0  0  0
   43.1728    0.2268   16.7459 C   0  0  0  0  0  0  0  0  0  0  0  0
   45.8125    1.3514   19.1657 C   0  0  0  0  0  0  0  0  0  0  0  0
   46.9335    0.5123   19.1706 C   0  0  1  0  0  0  0  0  0  0  0  0
   44.5525    0.1020   17.3753 C   0  0  2  0  0  0  0  0  0  0  0  0
   48.0979    0.6389   19.9182 C   0  0  0  0  0  0  0  0  0  0  0  0
   46.8323   -0.6818   18.3399 C   0  0  0  0  0  0  0  0  0  0  0  0
   45.6878   -0.8675   17.4432 C   0  0  0  0  0  0  0  0  0  0  0  0
   48.7557   -0.3449   20.5325 C   0  0  0  0  0  0  0  0  0  0  0  0
   50.0471   -0.2013   21.1166 O   0  0  0  0  0  0  0  0  0  0  0  0
   48.1297   -1.4706   20.9446 O   0  0  0  0  0  0  0  0  0  0  0  0
  1  2  1  0
  3  2  1  6
  1  4  1  0
  3  5  1  0
  5  6  1  0
  3  7  1  0
  7  4  1  1
  6  8  1  1
  6  9  1  0
  7 10  1  0
  9 10  1  0
  8 11  1  0
 11 12  1  0
 11 13  2  0
M  END
$$$$
10
     RDKit          3D

 16 17  0  0  0  0  0  0  0  0999 V2000
   42.6956    1.1982   17.6432 N   0  0  0  0  0  0  0  0  0  0  0  0
   43.3997    1.7705   18.3952 C   0  0  0  0  0  0  0  0  0  0  0  0
   44.7264    1.1136   18.4722 C   0  0  2  0  0  0  0  0  0  0  0  0
   43.1728    0.2268   16.7459 C   0  0  0  0  0  0  0  0  0  0  0  0
   45.8125    1.3514   19.1657 C   0  0  0  0  0  0  0  0  0  0  0  0
   46.9335    0.5123   19.1706 C   0  0  1  0  0  0  0  0  0  0  0  0
   44.5525    0.1020   17.3753 C   0  0  2  0  0  0  0  0  0  0  0  0
   48.0979    0.6389   19.9182 C   0  0  0  0  0  0  0  0  0  0  0  0
   46.8323   -0.6818   18.3399 C   0  0  0  0  0  0  0  0  0  0  0  0
   45.6878   -0.8675   17.4432 C   0  0  0  0  0  0  0  0  0  0  0  0
   48.7557   -0.3449   20.5325 C   0  0  0  0  0  0  0  0  0  0  0  0
   50.0471   -0.2013   21.1166 O   0  0  0  0  0  0  0  0  0  0  0  0
   48.2632   -1.6249   20.6822 C   0  0  0  0  0  0  0  0  0  0  0  0
   48.9287   -2.6670   21.3517 C   0  0  0  0  0  0  0  0  0  0  0  0
   50.1813   -2.5688   21.7080 O   0  0  0  0  0  0  0  0  0  0  0  0
   48.2869   -3.8168   21.7240 N   0  0  0  0  0  0  0  0  0  0  0  0
  1  2  1  0
  3  2  1  6
  1  4  1  0
  3  5  1  0
  5  6  1  0
  3  7  1  0
  7  4  1  1
  6  8  1  1
  6  9  1  0
  7 10  1  0
  9 10  1  0
  8 11  1  0
 11 12  1  0
 11 13  2  3
 13 14  1  0
 14 15  2  0
 14 16  1  0
M  END
$$$$
100
     RDKit          3D

 20 21  0  0  0  0  0  0  0  0999 V2000
   44.5604    1.5799   18.8503 C   0  0  0  0  0  0  0  0  0  0  0  0
   43.2812    1.5169   18.3363 C   0  0  0  0  0  0  0  0  0  0  0  0
   45.4118    0.6491   18.1971 C   0  0  0  0  0  0  0  0  0  0  0  0
   45.0245   -0.0804   17.0190 C   0  0  0  0  0  0  0  0  0  0  0  0
   43.0083    0.7878   17.1193 C   0  0  0  0  0  0  0  0  0  0  0  0
   46.0565   -0.9300   16.4689 C   0  0  0  0  0  0  0  0  0  0  0  0
   46.6447   -1.7662   17.3421 O   0  0  0  0  0  0  0  0  0  0  0  0
   43.8227   -0.0033   16.5690 C   0  0  0  0  0  0  0  0  0  0  0  0
   45.9648   -1.2912   15.1646 N   0  0  0  0  0  0  0  0  0  0  0  0
   45.4763   -0.4203   14.3189 C   0  0  0  0  0  0  0  0  0  0  0  0
   46.1884   -2.7107   14.8190 C   0  0  2  0  0  0  0  0  0  0  0  0
   47.4410   -2.9816   14.3226 C   0  0  0  0  0  0  0  0  0  0  0  0
   45.1593   -3.2300   13.7919 C   0  0  2  0  0  0  0  0  0  0  0  0
   44.8441   -0.9297   13.1105 C   0  0  2  0  0  0  0  0  0  0  0  0
   45.4853   -4.6210   13.3088 C   0  0  0  0  0  0  0  0  0  0  0  0
   45.0123   -5.6606   14.1603 N   0  0  0  0  0  0  0  0  0  0  0  0
   45.1026   -2.2858   12.6287 C   0  0  0  0  0  0  0  0  0  0  0  0
   44.2472    0.0199   12.2774 C   0  0  0  0  0  0  0  0  0  0  0  0
   44.3292    1.3260   12.4438 C   0  0  0  0  0  0  0  0  0  0  0  0
   44.0757    2.1063   11.3295 C   0  0  0  0  0  0  0  0  0  0  0  0
  1  2  1  0
  1  3  1  0
  3  4  1  0
  2  5  1  0
  4  6  1  0
  6  7  2  0
  4  8  1  0
  5  8  1  0
  6  9  1  0
  9 10  1  0
  9 11  1  0
 11 12  1  6
 11 13  1  0
 10 14  1  0
 13 15  1  6
 15 16  1  0
 13 17  1  0
 14 17  1  0
 14 18  1  6
 18 19  1  0
 19 20  1  0
M  END
$$$$
101
     RDKit          3D

 20 22  0  0  0  0  0  0  0  0999 V2000
   44.5604    1.5799   18.8503 C   0  0  0  0  0  0  0  0  0  0  0  0
   43.2812    1.5169   18.3363 C   0  0  0  0  0  0  0  0  0  0  0  0
   45.6086    0.8095   18.2740 C   0  0  0  0  0  0  0  0  0  0  0  0
   43.1444    0.5989   17.1502 C   0  0  0  0  0  0  0  0  0  0  0  0
   45.1257   -0.0328   17.2768 C   0  0  0  0  0  0  0  0  0  0  0  0
   44.0119   -0.0888   16.7208 C   0  0  0  0  0  0  0  0  0  0  0  0
   46.3008   -0.8390   16.6090 C   0  0  2  0  0  0  0  0  0  0  0  0
   46.2064   -0.9705   15.2572 O   0  0  0  0  0  0  0  0  0  0  0  0
   46.4132   -2.1580   17.2192 O   0  0  0  0  0  0  0  0  0  0  0  0
   45.2809   -1.8331   14.7396 C   0  0  2  0  0  0  0  0  0  0  0  0
   45.8860   -2.9987   13.9000 C   0  0  1  0  0  0  0  0  0  0  0  0
   45.5779   -4.2281   14.4351 N   0  0  0  0  0  0  0  0  0  0  0  0
   44.3523   -1.1977   13.7337 C   0  0  0  0  0  0  0  0  0  0  0  0
   45.7315   -5.2755   13.7725 C   0  0  0  0  0  0  0  0  0  0  0  0
   45.3041   -2.9148   12.5465 C   0  0  2  0  0  0  0  0  0  0  0  0
   44.3270   -1.9335   12.4904 C   0  0  0  0  0  0  0  0  0  0  0  0
   44.5497   -5.2370   12.6591 C   0  0  2  0  0  0  0  0  0  0  0  0
   44.0097   -6.4784   12.2320 C   0  0  0  0  0  0  0  0  0  0  0  0
   45.0265   -4.1776   11.8209 C   0  0  0  0  0  0  0  0  0  0  0  0
   42.6491   -6.5750   12.1448 C   0  0  0  0  0  0  0  0  0  0  0  0
  1  2  1  0
  1  3  1  0
  2  4  1  0
  3  5  1  0
  4  6  1  0
  5  6  1  0
  5  7  1  0
  7  8  1  0
  7  9  1  1
 10  8  1  6
 10 11  1  0
 11 12  1  1
 10 13  1  0
 12 14  1  0
 11 15  1  0
 13 16  1  0
 15 16  1  1
 14 17  1  0
 17 18  1  6
 15 19  1  0
 17 19  1  0
 18 20  1  0
M  END
$$$$
102
     RDKit          3D

 20 22  0  0  0  0  0  0  0  0999 V2000
   42.9062    0.9397   17.6172 C   0  0  0  0  0  0  0  0  0  0  0  0
   43.5291    0.1454   16.8472 C   0  0  0  0  0  0  0  0  0  0  0  0
   44.8988    0.0753   17.1283 C   0  0  0  0  0  0  0  0  0  0  0  0
   43.4017    1.7367   18.6536 C   0  0  0  0  0  0  0  0  0  0  0  0
   44.7162    1.6417   18.9546 C   0  0  0  0  0  0  0  0  0  0  0  0
   45.5017    0.7802   18.1567 C   0  0  0  0  0  0  0  0  0  0  0  0
   45.8329   -0.8243   16.3817 C   0  0  0  0  0  0  0  0  0  0  0  0
   46.6036   -1.6734   17.0094 O   0  0  0  0  0  0  0  0  0  0  0  0
   46.0658   -0.6455   15.0518 N   0  0  0  0  0  0  0  0  0  0  0  0
   46.6973   -1.5659   14.2201 C   0  0  0  0  0  0  0  0  0  0  0  0
   45.3027    0.3396   14.2970 C   0  0  0  0  0  0  0  0  0  0  0  0
   44.8876   -0.1905   12.9303 C   0  0  0  0  0  0  0  0  0  0  0  0
   45.8444   -1.5525   12.9351 C   0  0  2  0  0  0  0  0  0  0  0  0
   44.9870   -2.8184   12.8603 C   0  0  2  0  0  0  0  0  0  0  0  0
   44.4178   -3.4027   13.8654 N   0  0  0  0  0  0  0  0  0  0  0  0
   44.9748   -3.5003   11.6474 C   0  0  0  0  0  0  0  0  0  0  0  0
   44.1147   -4.7028   13.9408 C   0  0  0  0  0  0  0  0  0  0  0  0
   44.2707   -5.2942   12.6502 C   0  0  2  0  0  0  0  0  0  0  0  0
   44.6653   -4.7563   11.5594 C   0  0  0  0  0  0  0  0  0  0  0  0
   43.6840   -7.0134   12.6378 Cl  0  0  0  0  0  0  0  0  0  0  0  0
  1  2  1  0
  2  3  1  0
  1  4  1  0
  4  5  1  0
  3  6  1  0
  5  6  1  0
  3  7  1  0
  7  8  2  0
  7  9  1  0
  9 10  1  0
  9 11  1  0
 11 12  1  0
 13 10  1  1
 12 13  1  0
 13 14  1  0
 14 15  1  0
 14 16  1  1
 15 17  1  0
 17 18  1  0
 16 19  1  0
 18 19  1  0
 18 20  1  6
M  END
$$$$
103
     RDKit          3D

 20 22  0  0  0  0  0  0  0  0999 V2000
   45.5654   -5.9514   13.5958 C   0  0  0  0  0  0  0  0  0  0  0  0
   45.7909   -4.7104   13.7455 C   0  0  2  0  0  0  0  0  0  0  0  0
   44.6215   -6.3912   12.5557 C   0  0  0  0  0  0  0  0  0  0  0  0
   46.5263   -4.0636   14.7071 C   0  0  0  0  0  0  0  0  0  0  0  0
   43.9697   -5.4749   11.6732 C   0  0  0  0  0  0  0  0  0  0  0  0
   45.0865   -3.6104   12.7465 C   0  0  1  0  0  0  0  0  0  0  0  0
   44.1398   -4.1371   11.8651 C   0  0  0  0  0  0  0  0  0  0  0  0
   46.6456   -2.5974   14.7459 C   0  0  2  0  0  0  0  0  0  0  0  0
   47.2779   -1.9647   15.8433 C   0  0  0  0  0  0  0  0  0  0  0  0
   46.1673   -1.4205   16.8032 N   0  0  0  0  0  0  0  0  0  0  0  0
   45.4381   -2.2727   13.0939 C   0  0  2  0  0  0  0  0  0  0  0  0
   44.3091   -1.5701   13.4571 C   0  0  0  0  0  0  0  0  0  0  0  0
   45.0874   -0.7488   16.5095 C   0  0  0  0  0  0  0  0  0  0  0  0
   46.4980   -1.4831   18.1984 C   0  0  0  0  0  0  0  0  0  0  0  0
   45.4594   -0.7090   18.9015 C   0  0  0  0  0  0  0  0  0  0  0  0
   44.5466   -0.1929   17.8184 C   0  0  1  0  0  0  0  0  0  0  0  0
   44.3958   -0.0856   13.0233 C   0  0  0  0  0  0  0  0  0  0  0  0
   44.4035    0.0449   11.6101 C   0  0  0  0  0  0  0  0  0  0  0  0
   43.4494    0.6838   17.9485 C   0  0  0  0  0  0  0  0  0  0  0  0
   43.4206    1.7556   18.7473 C   0  0  0  0  0  0  0  0  0  0  0  0
  2  1  1  1
  1  3  1  0
  2  4  1  0
  3  5  1  0
  2  6  1  0
  5  7  1  0
  6  7  1  1
  4  8  1  0
  8  9  1  1
  9 10  1  0
  6 11  1  0
  8 11  1  0
 11 12  1  1
 10 13  1  0
 10 14  1  0
 14 15  1  0
 13 16  1  0
 15 16  1  0
 12 17  1  0
 17 18  1  0
 16 19  1  6
 19 20  1  0
M  END
$$$$
104
     RDKit          3D

 20 22  0  0  0  0  0  0  0  0999 V2000
   42.6956    1.1982   17.6432 N   0  0  0  0  0  0  0  0  0  0  0  0
   43.5899    0.4685   17.1413 C   0  0  1  0  0  0  0  0  0  0  0  0
   44.7723    0.2992   17.9868 C   0  0  1  0  0  0  0  0  0  0  0  0
   44.8758    0.7980   19.2349 C   0  0  0  0  0  0  0  0  0  0  0  0
   43.4696   -0.2101   15.8891 N   0  0  0  0  0  0  0  0  0  0  0  0
   45.8995   -0.5512   17.6411 C   0  0  0  0  0  0  0  0  0  0  0  0
   43.8715    1.7200   19.5787 C   0  0  0  0  0  0  0  0  0  0  0  0
   45.7225   -1.1623   16.2300 C   0  0  1  0  0  0  0  0  0  0  0  0
   44.5536   -0.8993   15.4889 C   0  0  0  0  0  0  0  0  0  0  0  0
   46.8182   -1.7551   15.5244 C   0  0  0  0  0  0  0  0  0  0  0  0
   44.5049   -1.4947   14.0708 C   0  0  0  0  0  0  0  0  0  0  0  0
   42.7369    1.9381   18.8095 C   0  0  0  0  0  0  0  0  0  0  0  0
   46.7059   -2.3251   14.3249 C   0  0  1  0  0  0  0  0  0  0  0  0
   47.7924   -3.1228   13.8405 C   0  0  0  0  0  0  0  0  0  0  0  0
   45.5073   -2.2074   13.5932 C   0  0  0  0  0  0  0  0  0  0  0  0
   45.4028   -2.9197   12.2595 C   0  0  0  0  0  0  0  0  0  0  0  0
   44.0451   -3.3694   11.9604 C   0  0  0  0  0  0  0  0  0  0  0  0
   44.0089   -4.7538   11.5551 C   0  0  0  0  0  0  0  0  0  0  0  0
   44.3613   -5.6038   12.6974 C   0  0  0  0  0  0  0  0  0  0  0  0
   43.7111   -6.8370   12.6634 N   0  0  0  0  0  0  0  0  0  0  0  0
  2  1  1  1
  2  3  1  0
  3  4  1  1
  2  5  1  0
  3  6  1  0
  4  7  1  0
  8  6  1  6
  5  9  1  0
  8  9  1  0
  8 10  1  0
  9 11  1  0
  1 12  1  0
  7 12  1  0
 10 13  1  0
 13 14  1  1
 11 15  1  0
 13 15  1  0
 15 16  1  0
 16 17  1  0
 17 18  1  0
 18 19  1  0
 19 20  1  0
M  END
$$$$
105
     RDKit          3D

 20 22  0  0  0  0  0  0  0  0999 V2000
   43.4362    0.9801   18.3618 C   0  0  0  0  0  0  0  0  0  0  0  0
   44.6781    0.5296   18.0170 C   0  0  0  0  0  0  0  0  0  0  0  0
   42.6665    1.1827   17.2593 N   0  0  0  0  0  0  0  0  0  0  0  0
   43.0641    0.4119   16.2680 N   0  0  0  0  0  0  0  0  0  0  0  0
   44.4016    0.0899   16.6478 C   0  0  0  0  0  0  0  0  0  0  0  0
   45.4956   -0.6018   15.9233 C   0  0  2  0  0  0  0  0  0  0  0  0
   45.1064   -1.3808   14.8004 C   0  0  1  0  0  0  0  0  0  0  0  0
   46.5881   -1.1334   16.6998 C   0  0  0  0  0  0  0  0  0  0  0  0
   44.6328   -0.8749   13.5466 C   0  0  0  0  0  0  0  0  0  0  0  0
   44.3515   -1.8079   12.4563 C   0  0  2  0  0  0  0  0  0  0  0  0
   46.1759   -2.0234   17.7128 O   0  0  0  0  0  0  0  0  0  0  0  0
   44.6208   -3.1921   12.6475 C   0  0  1  0  0  0  0  0  0  0  0  0
   44.3804   -4.1606   11.6279 C   0  0  0  0  0  0  0  0  0  0  0  0
   44.0818   -1.2045   11.1922 C   0  0  0  0  0  0  0  0  0  0  0  0
   44.1209   -5.4814   12.3638 C   0  0  0  0  0  0  0  0  0  0  0  0
   43.3935   -0.2489   10.7319 C   0  0  0  0  0  0  0  0  0  0  0  0
   44.9476   -5.7334   13.5231 N   0  0  0  0  0  0  0  0  0  0  0  0
   45.6628   -4.7390   13.7830 C   0  0  0  0  0  0  0  0  0  0  0  0
   46.1076   -2.4437   14.1658 C   0  0  0  0  0  0  0  0  0  0  0  0
   45.5257   -3.4183   13.5629 C   0  0  0  0  0  0  0  0  0  0  0  0
  1  2  1  0
  1  3  1  0
  3  4  1  0
  2  5  1  0
  4  5  1  0
  5  6  1  0
  6  7  1  0
  6  8  1  1
  7  9  1  6
  9 10  1  0
  8 11  1  0
 10 12  1  0
 12 13  1  6
 10 14  1  6
 13 15  1  0
 14 16  1  0
 15 17  1  0
 17 18  1  0
  7 19  1  0
 12 20  1  0
 18 20  1  0
 19 20  1  0
M  END
$$$$
106
     RDKit          3D

 20 23  0  0  0  0  0  0  0  0999 V2000
   42.6956    1.1982   17.6432 N   0  0  0  0  0  0  0  0  0  0  0  0
   43.5899    0.4685   17.1413 C   0  0  1  0  0  0  0  0  0  0  0  0
   44.7723    0.2992   17.9868 C   0  0  1  0  0  0  0  0  0  0  0  0
   44.8758    0.7980   19.2349 C   0  0  0  0  0  0  0  0  0  0  0  0
   43.4696   -0.2101   15.8891 N   0  0  0  0  0  0  0  0  0  0  0  0
   45.8995   -0.5512   17.6411 C   0  0  0  0  0  0  0  0  0  0  0  0
   43.8715    1.7200   19.5787 C   0  0  0  0  0  0  0  0  0  0  0  0
   45.7225   -1.1623   16.2300 C   0  0  0  0  0  0  0  0  0  0  0  0
   42.7488    1.9306   18.7924 C   0  0  0  0  0  0  0  0  0  0  0  0
   44.5600   -0.9458   15.4886 C   0  0  0  0  0  0  0  0  0  0  0  0
   44.4719   -1.5954   14.1821 C   0  0  0  0  0  0  0  0  0  0  0  0
   46.8101   -1.9518   15.7077 C   0  0  0  0  0  0  0  0  0  0  0  0
   46.6457   -2.5117   14.5768 C   0  0  0  0  0  0  0  0  0  0  0  0
   45.5182   -2.3969   13.8249 C   0  0  2  0  0  0  0  0  0  0  0  0
   45.5104   -3.0912   12.4219 C   0  0  0  0  0  0  0  0  0  0  0  0
   44.9919   -4.4928   12.6465 C   0  0  0  0  0  0  0  0  0  0  0  0
   45.7185   -5.5307   13.0331 C   0  0  0  0  0  0  0  0  0  0  0  0
   44.0916   -4.8409   11.4878 C   0  0  0  0  0  0  0  0  0  0  0  0
   44.8806   -6.8293   13.0982 C   0  0  0  0  0  0  0  0  0  0  0  0
   44.0875   -6.8082   11.8183 C   0  0  0  0  0  0  0  0  0  0  0  0
  2  1  1  1
  2  3  1  0
  3  4  1  1
  2  5  1  0
  3  6  1  0
  4  7  1  0
  6  8  1  0
  1  9  1  0
  7  9  1  0
  5 10  1  0
  8 10  1  0
 10 11  1  0
  8 12  1  0
 12 13  1  0
 11 14  1  0
 13 14  1  0
 14 15  1  6
 15 16  1  0
 16 17  1  0
 16 18  1  0
 17 19  1  0
 18 20  1  0
 19 20  1  0
M  END
$$$$
107
     RDKit          3D

 20 22  0  0  0  0  0  0  0  0999 V2000
   44.5604    1.5799   18.8503 C   0  0  0  0  0  0  0  0  0  0  0  0
   43.2812    1.5169   18.3363 C   0  0  0  0  0  0  0  0  0  0  0  0
   45.4118    0.6491   18.1971 C   0  0  0  0  0  0  0  0  0  0  0  0
   45.0245   -0.0804   17.0190 C   0  0  0  0  0  0  0  0  0  0  0  0
   43.0083    0.7878   17.1193 C   0  0  0  0  0  0  0  0  0  0  0  0
   46.0565   -0.9300   16.4689 C   0  0  0  0  0  0  0  0  0  0  0  0
   46.6447   -1.7662   17.3421 O   0  0  0  0  0  0  0  0  0  0  0  0
   43.8227   -0.0033   16.5690 C   0  0  0  0  0  0  0  0  0  0  0  0
   45.9648   -1.2912   15.1646 N   0  0  0  0  0  0  0  0  0  0  0  0
   46.5451   -2.5441   14.6957 C   0  0  0  0  0  0  0  0  0  0  0  0
   45.6908   -3.3471   13.8518 C   0  0  2  0  0  0  0  0  0  0  0  0
   46.3380   -4.4724   13.3184 C   0  0  0  0  0  0  0  0  0  0  0  0
   44.4820   -2.9143   13.3923 C   0  0  1  0  0  0  0  0  0  0  0  0
   44.5033   -1.6107   12.9504 C   0  0  0  0  0  0  0  0  0  0  0  0
   45.5266   -0.4035   14.0703 C   0  0  0  0  0  0  0  0  0  0  0  0
   44.1780   -0.8248   11.9210 C   0  0  0  0  0  0  0  0  0  0  0  0
   45.3626   -5.4986   12.8482 C   0  0  0  0  0  0  0  0  0  0  0  0
   43.8507   -3.7573   12.4590 C   0  0  0  0  0  0  0  0  0  0  0  0
   44.5801    0.5160   11.5561 C   0  0  0  0  0  0  0  0  0  0  0  0
   43.9883   -5.2177   12.6403 C   0  0  0  0  0  0  0  0  0  0  0  0
  1  2  1  0
  1  3  1  0
  3  4  1  0
  2  5  1  0
  4  6  1  0
  6  7  2  0
  4  8  1  0
  5  8  1  0
  6  9  1  0
  9 10  1  0
 11 10  1  6
 11 12  1  0
 11 13  1  0
 13 14  1  0
  9 15  1  0
 14 15  1  0
 14 16  2  3
 12 17  1  0
 13 18  1  6
 16 19  1  0
 17 20  1  0
 18 20  1  0
M  END
$$$$
108
     RDKit          3D

 20 22  0  0  0  0  0  0  0  0999 V2000
   42.6956    1.1982   17.6432 N   0  0  0  0  0  0  0  0  0  0  0  0
   43.6947    0.7926   17.6786 C   0  0  0  0  0  0  0  0  0  0  0  0
   44.9892    0.1066   17.5826 C   0  0  2  0  0  0  0  0  0  0  0  0
   45.3979   -0.3705   16.3836 C   0  0  1  0  0  0  0  0  0  0  0  0
   45.7216   -1.7049   16.2352 N   0  0  0  0  0  0  0  0  0  0  0  0
   45.2877    0.2728   15.1133 O   0  0  0  0  0  0  0  0  0  0  0  0
   45.0572   -0.6985   14.1962 C   0  0  2  0  0  0  0  0  0  0  0  0
   45.6628   -1.9892   14.7865 C   0  0  2  0  0  0  0  0  0  0  0  0
   45.6776   -0.5800   12.7680 C   0  0  0  0  0  0  0  0  0  0  0  0
   46.2553   -2.1373   17.4738 C   0  0  0  0  0  0  0  0  0  0  0  0
   45.1400   -3.1142   14.0812 C   0  0  0  0  0  0  0  0  0  0  0  0
   45.7231   -0.5380   18.6578 C   0  0  0  0  0  0  0  0  0  0  0  0
   45.3481   -2.9462   12.5496 C   0  0  2  0  0  0  0  0  0  0  0  0
   46.2951   -1.6893   18.4524 C   0  0  0  0  0  0  0  0  0  0  0  0
   44.8552   -1.6764   12.0506 C   0  0  2  0  0  0  0  0  0  0  0  0
   44.0718   -1.1826   11.1173 C   0  0  0  0  0  0  0  0  0  0  0  0
   45.2188   -4.0996   11.6913 C   0  0  0  0  0  0  0  0  0  0  0  0
   45.1833   -5.3336   12.5744 C   0  0  0  0  0  0  0  0  0  0  0  0
   44.3861   -6.4344   11.9894 C   0  0  0  0  0  0  0  0  0  0  0  0
   43.0036   -6.4021   12.1320 C   0  0  0  0  0  0  0  0  0  0  0  0
  1  2  3  0
  3  2  1  1
  3  4  1  0
  4  5  1  0
  4  6  1  6
  6  7  1  0
  5  8  1  0
  7  8  1  0
  7  9  1  6
  5 10  1  0
  8 11  1  1
  3 12  1  0
 11 13  1  0
 10 14  1  0
 12 14  1  0
  9 15  1  0
 13 15  1  0
 15 16  1  6
 13 17  1  6
 17 18  1  0
 18 19  1  0
 19 20  1  0
M  END
$$$$
109
     RDKit          3D

 20 22  0  0  0  0  0  0  0  0999 V2000
   45.5654   -5.9514   13.5958 C   0  0  0  0  0  0  0  0  0  0  0  0
   45.7909   -4.7104   13.7455 C   0  0  2  0  0  0  0  0  0  0  0  0
   44.6215   -6.3912   12.5557 C   0  0  0  0  0  0  0  0  0  0  0  0
   46.5263   -4.0636   14.7071 C   0  0  0  0  0  0  0  0  0  0  0  0
   43.9697   -5.4749   11.6732 C   0  0  0  0  0  0  0  0  0  0  0  0
   45.0865   -3.6104   12.7465 C   0  0  1  0  0  0  0  0  0  0  0  0
   44.1398   -4.1371   11.8651 C   0  0  0  0  0  0  0  0  0  0  0  0
   46.6456   -2.5974   14.7459 C   0  0  2  0  0  0  0  0  0  0  0  0
   47.2779   -1.9647   15.8433 C   0  0  0  0  0  0  0  0  0  0  0  0
   46.1673   -1.4205   16.8032 N   0  0  0  0  0  0  0  0  0  0  0  0
   45.4381   -2.2727   13.0939 C   0  0  2  0  0  0  0  0  0  0  0  0
   44.3091   -1.5701   13.4571 C   0  0  0  0  0  0  0  0  0  0  0  0
   45.0874   -0.7488   16.5095 C   0  0  0  0  0  0  0  0  0  0  0  0
   46.4980   -1.4831   18.1984 C   0  0  0  0  0  0  0  0  0  0  0  0
   45.4594   -0.7090   18.9015 C   0  0  0  0  0  0  0  0  0  0  0  0
   44.5466   -0.1929   17.8184 C   0  0  0  0  0  0  0  0  0  0  0  0
   43.4306    0.6246   17.9183 C   0  0  0  0  0  0  0  0  0  0  0  0
   44.4452   -0.0499   13.1395 C   0  0  0  0  0  0  0  0  0  0  0  0
   42.6322    0.8596   16.8595 O   0  0  0  0  0  0  0  0  0  0  0  0
   43.0795    1.1495   19.1328 N   0  0  0  0  0  0  0  0  0  0  0  0
  2  1  1  1
  1  3  1  0
  2  4  1  0
  3  5  1  0
  2  6  1  0
  5  7  1  0
  6  7  1  1
  4  8  1  0
  8  9  1  1
  9 10  1  0
  6 11  1  0
  8 11  1  0
 11 12  1  1
 10 13  1  0
 10 14  1  0
 14 15  1  0
 13 16  1  0
 15 16  1  0
 16 17  1  0
 12 18  1  0
 17 19  2  0
 17 20  1  0
M  END
$$$$
11
     RDKit          3D

 16 17  0  0  0  0  0  0  0  0999 V2000
   42.6956    1.1982   17.6432 N   0  0  0  0  0  0  0  0  0  0  0  0
   43.5899    0.4685   17.1413 C   0  0  2  0  0  0  0  0  0  0  0  0
   44.7723    0.2992   17.9868 C   0  0  0  0  0  0  0  0  0  0  0  0
   45.8858   -0.5110   17.4408 C   0  0  0  0  0  0  0  0  0  0  0  0
   45.8796   -0.8472   16.1244 C   0  0  2  0  0  0  0  0  0  0  0  0
   44.7185   -0.6435   15.3155 C   0  0  1  0  0  0  0  0  0  0  0  0
   47.0211   -1.6176   15.5547 C   0  0  0  0  0  0  0  0  0  0  0  0
   46.5745   -2.5046   14.6137 C   0  0  0  0  0  0  0  0  0  0  0  0
   43.6573    0.0907   15.8407 N   0  0  0  0  0  0  0  0  0  0  0  0
   44.6813   -1.1330   13.9876 C   0  0  0  0  0  0  0  0  0  0  0  0
   45.5734   -1.8906   13.5844 C   0  0  2  0  0  0  0  0  0  0  0  0
   45.2158   -2.9565   12.4517 C   0  0  0  0  0  0  0  0  0  0  0  0
   44.0353   -3.5837   12.7790 C   0  0  0  0  0  0  0  0  0  0  0  0
   44.2600   -4.9799   13.1528 C   0  0  0  0  0  0  0  0  0  0  0  0
   43.7054   -6.0431   12.2729 C   0  0  0  0  0  0  0  0  0  0  0  0
   42.4981   -6.5006   12.2933 C   0  0  0  0  0  0  0  0  0  0  0  0
  2  1  1  6
  2  3  1  0
  3  4  1  0
  5  4  1  1
  5  6  1  0
  5  7  1  0
  7  8  1  0
  2  9  1  0
  6  9  1  0
  6 10  1  6
  8 11  1  0
 10 11  1  0
 11 12  1  1
 12 13  1  0
 13 14  1  0
 14 15  1  0
 15 16  1  0
M  END
$$$$
110
     RDKit          3D

 20 22  0  0  0  0  0  0  0  0999 V2000
   42.6956    1.1982   17.6432 N   0  0  0  0  0  0  0  0  0  0  0  0
   43.6947    0.7926   17.6786 C   0  0  0  0  0  0  0  0  0  0  0  0
   44.9892    0.1066   17.5826 C   0  0  2  0  0  0  0  0  0  0  0  0
   45.3979   -0.3705   16.3836 C   0  0  1  0  0  0  0  0  0  0  0  0
   45.7216   -1.7049   16.2352 N   0  0  0  0  0  0  0  0  0  0  0  0
   45.2877    0.2728   15.1133 O   0  0  0  0  0  0  0  0  0  0  0  0
   45.0572   -0.6985   14.1962 C   0  0  2  0  0  0  0  0  0  0  0  0
   45.6628   -1.9892   14.7865 C   0  0  2  0  0  0  0  0  0  0  0  0
   45.6776   -0.5800   12.7680 C   0  0  0  0  0  0  0  0  0  0  0  0
   46.2553   -2.1373   17.4738 C   0  0  0  0  0  0  0  0  0  0  0  0
   45.1400   -3.1142   14.0812 C   0  0  0  0  0  0  0  0  0  0  0  0
   45.7231   -0.5380   18.6578 C   0  0  0  0  0  0  0  0  0  0  0  0
   45.3481   -2.9462   12.5496 C   0  0  1  0  0  0  0  0  0  0  0  0
   46.2951   -1.6893   18.4524 C   0  0  0  0  0  0  0  0  0  0  0  0
   44.8552   -1.6764   12.0506 C   0  0  0  0  0  0  0  0  0  0  0  0
   46.8243   -3.2666   12.2810 C   0  0  0  0  0  0  0  0  0  0  0  0
   44.4386   -4.2130   11.9886 C   0  0  0  0  0  0  0  0  0  0  0  0
   44.0830   -5.1125   12.7991 C   0  0  0  0  0  0  0  0  0  0  0  0
   43.7908   -6.3641   12.6002 N   0  0  0  0  0  0  0  0  0  0  0  0
   44.2966   -7.0659   11.5096 O   0  0  0  0  0  0  0  0  0  0  0  0
  1  2  3  0
  3  2  1  1
  3  4  1  0
  4  5  1  0
  4  6  1  6
  6  7  1  0
  5  8  1  0
  7  8  1  0
  7  9  1  6
  5 10  1  0
  8 11  1  1
  3 12  1  0
 11 13  1  0
 10 14  1  0
 12 14  1  0
  9 15  1  0
 13 15  1  0
 13 16  1  1
 13 17  1  0
 17 18  1  0
 18 19  2  3
 19 20  1  0
M  END
$$$$
111
     RDKit          3D

 20 23  0  0  0  0  0  0  0  0999 V2000
   42.9080    1.3228   18.0138 N   0  0  0  0  0  0  0  0  0  0  0  0
   43.9832    1.7227   18.3926 C   0  0  0  0  0  0  0  0  0  0  0  0
   42.8695    0.3948   17.0033 C   0  0  0  0  0  0  0  0  0  0  0  0
   44.2236    0.0273   16.6850 C   0  0  1  0  0  0  0  0  0  0  0  0
   45.0955    0.9716   17.8637 C   0  0  0  0  0  0  0  0  0  0  0  0
   46.4468    0.8102   17.9674 C   0  0  0  0  0  0  0  0  0  0  0  0
   45.0317   -0.7375   15.9757 C   0  0  1  0  0  0  0  0  0  0  0  0
   46.3447   -1.0186   16.1627 C   0  0  2  0  0  0  0  0  0  0  0  0
   46.9785   -2.0105   15.3495 C   0  0  0  0  0  0  0  0  0  0  0  0
   44.1733   -1.4584   14.8135 C   0  0  0  0  0  0  0  0  0  0  0  0
   46.2879   -2.5680   14.2346 C   0  0  2  0  0  0  0  0  0  0  0  0
   47.0205   -0.3387   17.3611 C   0  0  0  0  0  0  0  0  0  0  0  0
   44.9546   -2.3011   13.9930 C   0  0  1  0  0  0  0  0  0  0  0  0
   47.0333   -3.5596   13.3631 C   0  0  0  0  0  0  0  0  0  0  0  0
   46.0948   -4.4156   12.5613 C   0  0  0  0  0  0  0  0  0  0  0  0
   44.1792   -2.9777   12.9698 C   0  0  0  0  0  0  0  0  0  0  0  0
   44.7623   -4.1665   12.2303 C   0  0  2  0  0  0  0  0  0  0  0  0
   43.9499   -5.2315   12.0838 C   0  0  0  0  0  0  0  0  0  0  0  0
   44.3389   -6.3344   11.4813 O   0  0  0  0  0  0  0  0  0  0  0  0
   42.7836   -5.3300   12.6521 O   0  0  0  0  0  0  0  0  0  0  0  0
  1  2  1  0
  1  3  1  0
  4  3  1  1
  2  5  1  0
  4  5  1  0
  5  6  1  0
  4  7  1  0
  7  8  1  0
  8  9  1  1
  7 10  1  1
 11  9  1  1
  6 12  1  0
  8 12  1  0
 13 10  1  1
 11 13  1  0
 11 14  1  0
 14 15  1  0
 13 16  1  0
 15 17  1  0
 16 17  1  0
 17 18  1  1
 18 19  1  0
 18 20  2  0
M  END
$$$$
112
     RDKit          3D

 20 21  0  0  0  0  0  0  0  0999 V2000
   45.4905   -6.1230   13.1683 C   0  0  0  0  0  0  0  0  0  0  0  0
   44.4389   -5.8545   12.3632 C   0  0  1  0  0  0  0  0  0  0  0  0
   43.5834   -6.6525   11.8525 C   0  0  0  0  0  0  0  0  0  0  0  0
   44.0422   -4.4523   12.6406 C   0  0  0  0  0  0  0  0  0  0  0  0
   44.1152   -7.7746   11.1430 N   0  0  0  0  0  0  0  0  0  0  0  0
   45.9597   -5.0920   13.9625 C   0  0  0  0  0  0  0  0  0  0  0  0
   45.0712   -3.9591   13.5808 N   0  0  0  0  0  0  0  0  0  0  0  0
   45.3785   -2.6019   13.8064 C   0  0  1  0  0  0  0  0  0  0  0  0
   42.1915   -6.7728   12.1201 N   0  0  0  0  0  0  0  0  0  0  0  0
   44.6281   -1.6091   13.0668 C   0  0  2  0  0  0  0  0  0  0  0  0
   45.0973   -1.3436   11.7539 C   0  0  0  0  0  0  0  0  0  0  0  0
   44.3325   -0.3995   13.8621 C   0  0  0  0  0  0  0  0  0  0  0  0
   46.2670   -2.3626   14.7878 C   0  0  0  0  0  0  0  0  0  0  0  0
   45.1421   -0.2809   14.8970 C   0  0  0  0  0  0  0  0  0  0  0  0
   46.0349   -1.1413   15.4907 C   0  0  2  0  0  0  0  0  0  0  0  0
   46.9650   -0.6712   16.7200 C   0  0  0  0  0  0  0  0  0  0  0  0
   44.1163   -0.5325   11.0291 C   0  0  0  0  0  0  0  0  0  0  0  0
   46.4444   -0.9979   17.8161 N   0  0  0  0  0  0  0  0  0  0  0  0
   47.0564   -0.5263   18.9985 C   0  0  0  0  0  0  0  0  0  0  0  0
   45.1892   -1.5628   17.9825 O   0  0  0  0  0  0  0  0  0  0  0  0
  1  2  1  0
  2  3  1  1
  2  4  1  0
  3  5  1  0
  1  6  1  0
  4  7  1  0
  6  7  1  0
  8  7  1  1
  3  9  2  0
  8 10  1  0
 10 11  1  6
 10 12  1  0
  8 13  1  0
 12 14  1  0
 13 15  1  0
 14 15  1  0
 15 16  1  6
 11 17  1  0
 16 18  1  0
 18 19  1  0
 18 20  1  0
M  END
$$$$
113
     RDKit          3D

 20 23  0  0  0  0  0  0  0  0999 V2000
   43.9042    1.6019   18.5628 C   0  0  0  0  0  0  0  0  0  0  0  0
   45.0790    0.9529   18.2449 C   0  0  0  0  0  0  0  0  0  0  0  0
   42.7841    1.1368   17.7770 C   0  0  0  0  0  0  0  0  0  0  0  0
   42.9455    0.2538   16.7187 C   0  0  0  0  0  0  0  0  0  0  0  0
   44.9605   -0.0519   17.2254 C   0  0  2  0  0  0  0  0  0  0  0  0
   46.3609   -0.6284   17.0279 C   0  0  0  0  0  0  0  0  0  0  0  0
   44.0832   -0.2868   16.4711 C   0  0  0  0  0  0  0  0  0  0  0  0
   44.2489   -1.1779   15.3799 C   0  0  2  0  0  0  0  0  0  0  0  0
   46.6010   -1.4551   15.9725 C   0  0  0  0  0  0  0  0  0  0  0  0
   45.4627   -1.7994   15.1301 N   0  0  0  0  0  0  0  0  0  0  0  0
   45.5850   -2.7936   14.0994 C   0  0  1  0  0  0  0  0  0  0  0  0
   46.0055   -4.0508   14.4592 C   0  0  0  0  0  0  0  0  0  0  0  0
   45.2299   -5.1502   13.7220 C   0  0  0  0  0  0  0  0  0  0  0  0
   44.3744   -4.6918   12.7709 C   0  0  2  0  0  0  0  0  0  0  0  0
   44.3120   -2.6739   13.3303 C   0  0  2  0  0  0  0  0  0  0  0  0
   43.8855   -3.5243   12.5825 C   0  0  0  0  0  0  0  0  0  0  0  0
   43.8824   -1.2398   13.6767 C   0  0  0  0  0  0  0  0  0  0  0  0
   43.6874   -5.9841   12.0216 C   0  0  0  0  0  0  0  0  0  0  0  0
   44.4227   -6.9120   11.5406 N   0  0  0  0  0  0  0  0  0  0  0  0
   42.4310   -6.0536   11.9028 O   0  0  0  0  0  0  0  0  0  0  0  0
  1  2  1  0
  1  3  1  0
  3  4  1  0
  5  2  1  6
  5  6  1  0
  4  7  1  0
  5  7  1  0
  7  8  1  0
  6  9  1  0
  8 10  1  0
  9 10  1  0
 10 11  1  0
 11 12  1  1
 12 13  1  0
 13 14  1  0
 11 15  1  0
 14 16  1  0
 15 16  1  6
  8 17  1  6
 15 17  1  0
 14 18  1  1
 18 19  1  0
 18 20  2  0
M  END
$$$$
114
     RDKit          3D

 20 23  0  0  0  0  0  0  0  0999 V2000
   44.5604    1.5799   18.8503 C   0  0  0  0  0  0  0  0  0  0  0  0
   45.5641    0.7969   18.2965 C   0  0  0  0  0  0  0  0  0  0  0  0
   43.2556    1.3763   18.2277 C   0  0  0  0  0  0  0  0  0  0  0  0
   43.2749    0.5120   17.0394 C   0  0  0  0  0  0  0  0  0  0  0  0
   45.3340   -0.0516   17.2006 C   0  0  0  0  0  0  0  0  0  0  0  0
   44.3043   -0.0969   16.7325 C   0  0  2  0  0  0  0  0  0  0  0  0
   46.7345   -0.8890   16.6971 S   0  0  0  0  0  0  0  0  0  0  0  0
   44.4808   -0.9394   15.5417 N   0  0  0  0  0  0  0  0  0  0  0  0
   45.6693   -1.5389   15.4971 C   0  0  1  0  0  0  0  0  0  0  0  0
   46.0119   -1.9484   14.0929 C   0  0  1  0  0  0  0  0  0  0  0  0
   46.2843   -3.3534   14.0965 C   0  0  0  0  0  0  0  0  0  0  0  0
   45.0426   -4.1418   13.7626 C   0  0  1  0  0  0  0  0  0  0  0  0
   44.3712   -3.5429   12.6741 C   0  0  2  0  0  0  0  0  0  0  0  0
   45.5662   -1.2702   12.9847 C   0  0  2  0  0  0  0  0  0  0  0  0
   45.1954    0.0536   12.9869 C   0  0  0  0  0  0  0  0  0  0  0  0
   44.9003   -5.5419   13.9226 C   0  0  0  0  0  0  0  0  0  0  0  0
   44.7348   -6.4476   12.7590 C   0  0  0  0  0  0  0  0  0  0  0  0
   44.2106   -2.0060   12.5418 C   0  0  0  0  0  0  0  0  0  0  0  0
   43.5247   -5.9352   11.8896 C   0  0  0  0  0  0  0  0  0  0  0  0
   43.6266   -4.3980   11.7022 C   0  0  0  0  0  0  0  0  0  0  0  0
  1  2  1  0
  1  3  1  0
  3  4  1  0
  2  5  1  0
  6  4  1  6
  5  6  1  0
  5  7  1  0
  6  8  1  0
  7  9  1  0
  9  8  1  6
  9 10  1  0
 10 11  1  6
 12 11  1  6
 12 13  1  0
 10 14  1  0
 14 15  1  1
 12 16  1  0
 16 17  1  0
 13 18  1  1
 14 18  1  0
 17 19  1  0
 13 20  1  0
 19 20  1  0
M  END
$$$$
115
     RDKit          3D

 20 20  0  0  0  0  0  0  0  0999 V2000
   42.5168    1.3863   17.9318 N   0  0  0  0  0  0  0  0  0  0  0  0
   43.4269    0.6962   17.3707 C   0  0  0  0  0  0  0  0  0  0  0  0
   43.3570    0.1048   16.1824 N   0  0  0  0  0  0  0  0  0  0  0  0
   44.6883    0.5682   18.2041 C   0  0  0  0  0  0  0  0  0  0  0  0
   44.4187   -0.5363   15.6646 C   0  0  0  0  0  0  0  0  0  0  0  0
   44.3680   -1.1549   14.4177 C   0  0  0  0  0  0  0  0  0  0  0  0
   45.1616   -0.8110   13.4151 C   0  0  0  0  0  0  0  0  0  0  0  0
   45.8001   -0.0913   17.6154 C   0  0  2  0  0  0  0  0  0  0  0  0
   45.6651   -0.6497   16.4000 N   0  0  0  0  0  0  0  0  0  0  0  0
   46.9053   -0.1525   18.4915 C   0  0  0  0  0  0  0  0  0  0  0  0
   45.0998   -1.6404   12.1767 C   0  0  1  0  0  0  0  0  0  0  0  0
   44.6269   -2.9701   12.3992 C   0  0  0  0  0  0  0  0  0  0  0  0
   44.0934   -0.7909   11.3372 C   0  0  0  0  0  0  0  0  0  0  0  0
   45.3756   -4.0715   12.7428 C   0  0  0  0  0  0  0  0  0  0  0  0
   48.0196   -0.8879   18.2128 O   0  0  0  0  0  0  0  0  0  0  0  0
   44.8373   -5.4335   13.0812 C   0  0  0  0  0  0  0  0  0  0  0  0
   43.6615   -5.7757   12.4971 C   0  0  0  0  0  0  0  0  0  0  0  0
   43.2612   -6.9921   12.2388 C   0  0  0  0  0  0  0  0  0  0  0  0
   46.9144    0.5206   19.6251 O   0  0  0  0  0  0  0  0  0  0  0  0
   41.9688   -7.2048   11.4755 C   0  0  0  0  0  0  0  0  0  0  0  0
  1  2  1  0
  2  3  1  0
  2  4  1  0
  3  5  1  0
  5  6  1  0
  6  7  1  0
  4  8  1  0
  5  9  1  0
  8  9  1  0
  8 10  1  1
  7 11  1  0
 11 12  1  0
 11 13  1  6
 12 14  2  3
 10 15  1  0
 14 16  1  0
 16 17  1  0
 17 18  2  3
 10 19  2  0
 18 20  1  0
M  END
$$$$
116
     RDKit          3D

 20 23  0  0  0  0  0  0  0  0999 V2000
   42.6956    1.1982   17.6432 N   0  0  0  0  0  0  0  0  0  0  0  0
   43.5899    0.4685   17.1413 C   0  0  1  0  0  0  0  0  0  0  0  0
   44.7723    0.2992   17.9868 C   0  0  1  0  0  0  0  0  0  0  0  0
   44.8758    0.7980   19.2349 C   0  0  0  0  0  0  0  0  0  0  0  0
   43.4696   -0.2101   15.8891 N   0  0  0  0  0  0  0  0  0  0  0  0
   45.8995   -0.5512   17.6411 C   0  0  0  0  0  0  0  0  0  0  0  0
   43.8715    1.7200   19.5787 C   0  0  0  0  0  0  0  0  0  0  0  0
   45.7225   -1.1623   16.2300 C   0  0  0  0  0  0  0  0  0  0  0  0
   42.7488    1.9306   18.7924 C   0  0  0  0  0  0  0  0  0  0  0  0
   44.5600   -0.9458   15.4886 C   0  0  0  0  0  0  0  0  0  0  0  0
   44.4719   -1.5954   14.1821 C   0  0  0  0  0  0  0  0  0  0  0  0
   46.8101   -1.9518   15.7077 C   0  0  0  0  0  0  0  0  0  0  0  0
   46.6457   -2.5117   14.5768 C   0  0  0  0  0  0  0  0  0  0  0  0
   45.5182   -2.3969   13.8249 C   0  0  2  0  0  0  0  0  0  0  0  0
   45.5104   -3.0912   12.4219 C   0  0  0  0  0  0  0  0  0  0  0  0
   44.9919   -4.4928   12.6465 C   0  0  2  0  0  0  0  0  0  0  0  0
   45.7185   -5.5307   13.0331 C   0  0  0  0  0  0  0  0  0  0  0  0
   44.7981   -6.6587   13.2083 N   0  0  0  0  0  0  0  0  0  0  0  0
   43.6409   -6.4428   12.5464 C   0  0  0  0  0  0  0  0  0  0  0  0
   43.6138   -5.0067   12.1568 C   0  0  0  0  0  0  0  0  0  0  0  0
  2  1  1  1
  2  3  1  0
  3  4  1  1
  2  5  1  0
  3  6  1  0
  4  7  1  0
  6  8  1  0
  1  9  1  0
  7  9  1  0
  5 10  1  0
  8 10  1  0
 10 11  1  0
  8 12  1  0
 12 13  1  0
 11 14  1  0
 13 14  1  0
 14 15  1  6
 16 15  1  6
 16 17  1  0
 17 18  1  0
 18 19  1  0
 16 20  1  0
 19 20  1  0
M  END
$$$$
117
     RDKit          3D

 20 21  0  0  0  0  0  0  0  0999 V2000
   42.6853   -6.5012   12.1148 C   0  0  0  0  0  0  0  0  0  0  0  0
   43.8477   -6.0998   12.0288 C   0  0  2  0  0  0  0  0  0  0  0  0
   44.8450   -6.8893   12.0068 O   0  0  0  0  0  0  0  0  0  0  0  0
   44.2222   -5.0258   12.9087 C   0  0  0  0  0  0  0  0  0  0  0  0
   44.2305   -3.6915   12.1579 C   0  0  0  0  0  0  0  0  0  0  0  0
   45.3959   -2.7020   12.6932 C   0  0  2  0  0  0  0  0  0  0  0  0
   45.6829   -2.8496   14.1199 N   0  0  0  0  0  0  0  0  0  0  0  0
   45.7336   -1.6431   12.0877 C   0  0  0  0  0  0  0  0  0  0  0  0
   46.2698   -1.7792   14.6981 C   0  0  1  0  0  0  0  0  0  0  0  0
   45.9913   -0.5670   12.8587 C   0  0  0  0  0  0  0  0  0  0  0  0
   45.2674   -7.4639   13.2265 C   0  0  0  0  0  0  0  0  0  0  0  0
   46.3337   -0.6096   14.1693 C   0  0  0  0  0  0  0  0  0  0  0  0
   46.6432   -1.9506   16.1595 C   0  0  0  0  0  0  0  0  0  0  0  0
   45.9369   -1.1456   17.1509 C   0  0  1  0  0  0  0  0  0  0  0  0
   44.6341   -0.5180   16.8420 C   0  0  0  0  0  0  0  0  0  0  0  0
   46.1309   -1.6171   18.5041 C   0  0  0  0  0  0  0  0  0  0  0  0
   45.6111   -0.7638   19.4912 C   0  0  0  0  0  0  0  0  0  0  0  0
   44.1959    0.3753   17.7624 C   0  0  1  0  0  0  0  0  0  0  0  0
   43.0988    1.3515   17.5399 N   0  0  0  0  0  0  0  0  0  0  0  0
   44.5640    0.2034   19.1788 C   0  0  0  0  0  0  0  0  0  0  0  0
  2  1  1  1
  2  3  1  0
  2  4  1  0
  4  5  1  0
  6  5  1  1
  6  7  1  0
  6  8  1  0
  7  9  1  0
  8 10  1  0
  3 11  1  0
  9 12  1  0
 10 12  1  0
  9 13  1  1
 14 13  1  6
 14 15  1  0
 14 16  1  0
 16 17  1  0
 15 18  1  0
 18 19  1  1
 17 20  1  0
 18 20  1  0
M  END
$$$$
118
     RDKit          3D

 20 21  0  0  0  0  0  0  0  0999 V2000
   44.5604    1.5799   18.8503 C   0  0  0  0  0  0  0  0  0  0  0  0
   43.2812    1.5169   18.3363 C   0  0  0  0  0  0  0  0  0  0  0  0
   45.6086    0.8095   18.2740 C   0  0  0  0  0  0  0  0  0  0  0  0
   45.0867    0.0133   17.2883 C   0  0  0  0  0  0  0  0  0  0  0  0
   43.8429    0.0929   16.6869 C   0  0  0  0  0  0  0  0  0  0  0  0
   42.9658    0.8908   17.2788 C   0  0  0  0  0  0  0  0  0  0  0  0
   46.1617   -0.8499   16.6068 C   0  0  0  0  0  0  0  0  0  0  0  0
   46.1692   -0.9303   15.2072 N   0  0  0  0  0  0  0  0  0  0  0  0
   45.7099   -0.1891   14.3238 C   0  0  0  0  0  0  0  0  0  0  0  0
   45.7220   -0.7764   12.9699 C   0  0  2  0  0  0  0  0  0  0  0  0
   46.8874   -2.1980   14.6821 C   0  0  0  0  0  0  0  0  0  0  0  0
   44.4038   -0.8721   12.2845 C   0  0  0  0  0  0  0  0  0  0  0  0
   46.3140   -2.2295   13.2567 C   0  0  1  0  0  0  0  0  0  0  0  0
   45.8175   -3.3582   12.6059 C   0  0  0  0  0  0  0  0  0  0  0  0
   43.9065    0.2934   11.6307 C   0  0  0  0  0  0  0  0  0  0  0  0
   45.4701   -4.5326   13.4577 C   0  0  0  0  0  0  0  0  0  0  0  0
   44.7386   -5.6466   12.9083 C   0  0  0  0  0  0  0  0  0  0  0  0
   43.3992   -5.4694   12.4546 C   0  0  0  0  0  0  0  0  0  0  0  0
   46.2925   -1.9481   17.5376 O   0  0  0  0  0  0  0  0  0  0  0  0
   42.6998   -6.6206   11.9043 C   0  0  0  0  0  0  0  0  0  0  0  0
  1  2  1  0
  1  3  1  0
  3  4  1  0
  4  5  1  0
  2  6  1  0
  5  6  1  0
  4  7  1  0
  7  8  1  0
  8  9  1  0
  9 10  1  0
  8 11  1  0
 10 12  1  1
 10 13  1  0
 11 13  1  0
 13 14  1  1
 12 15  1  0
 14 16  1  0
 16 17  1  0
 17 18  1  0
  7 19  2  0
 18 20  1  0
M  END
$$$$
119
     RDKit          3D

 20 21  0  0  0  0  0  0  0  0999 V2000
   45.4905   -6.1230   13.1683 C   0  0  0  0  0  0  0  0  0  0  0  0
   44.4389   -5.8545   12.3632 C   0  0  1  0  0  0  0  0  0  0  0  0
   43.5834   -6.6525   11.8525 C   0  0  0  0  0  0  0  0  0  0  0  0
   44.0422   -4.4523   12.6406 C   0  0  0  0  0  0  0  0  0  0  0  0
   44.1152   -7.7746   11.1430 N   0  0  0  0  0  0  0  0  0  0  0  0
   45.9597   -5.0920   13.9625 C   0  0  0  0  0  0  0  0  0  0  0  0
   45.0712   -3.9591   13.5808 N   0  0  0  0  0  0  0  0  0  0  0  0
   45.3785   -2.6019   13.8064 C   0  0  1  0  0  0  0  0  0  0  0  0
   42.1915   -6.7728   12.1201 N   0  0  0  0  0  0  0  0  0  0  0  0
   44.6281   -1.6091   13.0668 C   0  0  2  0  0  0  0  0  0  0  0  0
   45.0973   -1.3436   11.7539 C   0  0  0  0  0  0  0  0  0  0  0  0
   44.3325   -0.3995   13.8621 C   0  0  0  0  0  0  0  0  0  0  0  0
   46.2670   -2.3626   14.7878 C   0  0  0  0  0  0  0  0  0  0  0  0
   45.1421   -0.2809   14.8970 C   0  0  0  0  0  0  0  0  0  0  0  0
   46.0349   -1.1413   15.4907 C   0  0  2  0  0  0  0  0  0  0  0  0
   46.9650   -0.6712   16.7200 C   0  0  0  0  0  0  0  0  0  0  0  0
   44.1163   -0.5325   11.0291 C   0  0  0  0  0  0  0  0  0  0  0  0
   46.1934   -0.7773   17.8300 C   0  0  0  0  0  0  0  0  0  0  0  0
   46.7098   -1.3699   18.9235 N   0  0  0  0  0  0  0  0  0  0  0  0
   45.0077   -0.0972   17.8763 O   0  0  0  0  0  0  0  0  0  0  0  0
  1  2  1  0
  2  3  1  1
  2  4  1  0
  3  5  1  0
  1  6  1  0
  4  7  1  0
  6  7  1  0
  8  7  1  1
  3  9  2  0
  8 10  1  0
 10 11  1  6
 10 12  1  0
  8 13  1  0
 12 14  1  0
 13 15  1  0
 14 15  1  0
 15 16  1  6
 11 17  1  0
 16 18  1  0
 18 19  1  0
 18 20  2  0
M  END
$$$$
12
     RDKit          3D

 16 17  0  0  0  0  0  0  0  0999 V2000
   43.2352    1.2716   18.0171 C   0  0  0  0  0  0  0  0  0  0  0  0
   44.5574    1.3256   18.1198 C   0  0  0  0  0  0  0  0  0  0  0  0
   42.5750    0.5561   16.9984 C   0  0  0  0  0  0  0  0  0  0  0  0
   43.2515   -0.2197   16.2056 C   0  0  0  0  0  0  0  0  0  0  0  0
   45.3366    0.4177   17.3221 C   0  0  0  0  0  0  0  0  0  0  0  0
   44.6359   -0.3189   16.3516 C   0  0  0  0  0  0  0  0  0  0  0  0
   45.4561   -1.1310   15.4922 C   0  0  0  0  0  0  0  0  0  0  0  0
   45.0102   -1.2231   14.0603 C   0  0  0  0  0  0  0  0  0  0  0  0
   46.5870   -1.7772   15.8544 C   0  0  1  0  0  0  0  0  0  0  0  0
   47.0080   -1.7971   17.1618 O   0  0  0  0  0  0  0  0  0  0  0  0
   47.2199   -2.6793   14.8966 C   0  0  0  0  0  0  0  0  0  0  0  0
   45.6896   -1.9917   13.1465 C   0  0  2  0  0  0  0  0  0  0  0  0
   46.8436   -2.7216   13.5388 C   0  0  0  0  0  0  0  0  0  0  0  0
   45.3400   -2.0390   11.6399 C   0  0  0  0  0  0  0  0  0  0  0  0
   43.8372   -1.6182   11.5998 C   0  0  0  0  0  0  0  0  0  0  0  0
   43.7499   -0.8272   10.3213 C   0  0  0  0  0  0  0  0  0  0  0  0
  1  2  1  0
  1  3  1  0
  3  4  1  0
  2  5  1  0
  4  6  1  0
  5  6  1  0
  6  7  1  0
  7  8  1  0
  7  9  1  0
  9 10  1  1
  9 11  1  0
  8 12  1  0
 11 13  1  0
 12 13  1  0
 12 14  1  6
 14 15  1  0
 15 16  1  0
M  END
$$$$
13
     RDKit          3D

 16 17  0  0  0  0  0  0  0  0999 V2000
   42.6956    1.1982   17.6432 N   0  0  0  0  0  0  0  0  0  0  0  0
   43.5899    0.4685   17.1413 C   0  0  2  0  0  0  0  0  0  0  0  0
   44.7723    0.2992   17.9868 C   0  0  0  0  0  0  0  0  0  0  0  0
   45.8858   -0.5110   17.4408 C   0  0  0  0  0  0  0  0  0  0  0  0
   45.8796   -0.8472   16.1244 C   0  0  2  0  0  0  0  0  0  0  0  0
   44.7185   -0.6435   15.3155 C   0  0  1  0  0  0  0  0  0  0  0  0
   47.0211   -1.6176   15.5547 C   0  0  0  0  0  0  0  0  0  0  0  0
   46.5745   -2.5046   14.6137 C   0  0  0  0  0  0  0  0  0  0  0  0
   43.6573    0.0907   15.8407 N   0  0  0  0  0  0  0  0  0  0  0  0
   44.6813   -1.1330   13.9876 C   0  0  0  0  0  0  0  0  0  0  0  0
   45.5734   -1.8906   13.5844 C   0  0  2  0  0  0  0  0  0  0  0  0
   45.2158   -2.9565   12.4517 C   0  0  0  0  0  0  0  0  0  0  0  0
   44.0353   -3.5837   12.7790 C   0  0  0  0  0  0  0  0  0  0  0  0
   44.2600   -4.9799   13.1528 C   0  0  0  0  0  0  0  0  0  0  0  0
   43.7054   -6.0431   12.2729 C   0  0  0  0  0  0  0  0  0  0  0  0
   44.6662   -6.8931   11.6174 O   0  0  0  0  0  0  0  0  0  0  0  0
  2  1  1  6
  2  3  1  0
  3  4  1  0
  5  4  1  1
  5  6  1  0
  5  7  1  0
  7  8  1  0
  2  9  1  0
  6  9  1  0
  6 10  1  6
  8 11  1  0
 10 11  1  0
 11 12  1  1
 12 13  1  0
 13 14  1  0
 14 15  1  0
 15 16  1  0
M  END
$$$$
14
     RDKit          3D

 16 18  0  0  0  0  0  0  0  0999 V2000
   45.3585   -6.3765   13.4817 C   0  0  2  0  0  0  0  0  0  0  0  0
   44.4106   -6.0990   12.5782 C   0  0  2  0  0  0  0  0  0  0  0  0
   44.1939   -4.7504   12.2197 C   0  0  0  0  0  0  0  0  0  0  0  0
   45.0306   -3.7304   12.7368 C   0  0  1  0  0  0  0  0  0  0  0  0
   43.3559   -7.0926   12.0095 C   0  0  0  0  0  0  0  0  0  0  0  0
   45.4473   -7.7249   13.8856 N   0  0  0  0  0  0  0  0  0  0  0  0
   44.8253   -2.2849   12.4264 C   0  0  0  0  0  0  0  0  0  0  0  0
   44.8488   -8.6389   12.9774 C   0  0  0  0  0  0  0  0  0  0  0  0
   43.8317   -8.3135   12.0700 N   0  0  0  0  0  0  0  0  0  0  0  0
   46.1222   -5.3233   14.0031 C   0  0  0  0  0  0  0  0  0  0  0  0
   45.9360   -3.9959   13.6763 C   0  0  0  0  0  0  0  0  0  0  0  0
   44.9274   -1.8619   11.1229 C   0  0  0  0  0  0  0  0  0  0  0  0
   44.1112   -0.5703   11.0051 C   0  0  0  0  0  0  0  0  0  0  0  0
   44.6393   -1.5515   13.6200 C   0  0  0  0  0  0  0  0  0  0  0  0
   44.1695    0.0937   12.3037 C   0  0  0  0  0  0  0  0  0  0  0  0
   44.2332   -0.3398   13.5012 C   0  0  0  0  0  0  0  0  0  0  0  0
  1  2  1  0
  2  3  1  1
  3  4  1  0
  2  5  1  0
  1  6  1  0
  4  7  1  1
  6  8  1  0
  5  9  1  0
  8  9  1  0
  1 10  1  1
  4 11  1  0
 10 11  1  0
  7 12  1  0
 12 13  1  0
  7 14  1  0
 13 15  1  0
 14 16  1  0
 15 16  1  0
M  END
$$$$
15
     RDKit          3D

 17 19  0  0  0  0  0  0  0  0999 V2000
   42.8090    1.3747   18.3302 N   0  0  0  0  0  0  0  0  0  0  0  0
   43.8881    1.8759   18.6176 C   0  0  0  0  0  0  0  0  0  0  0  0
   45.0511    1.0803   18.4084 C   0  0  0  0  0  0  0  0  0  0  0  0
   44.5595    0.1125   17.5582 C   0  0  1  0  0  0  0  0  0  0  0  0
   43.1608    0.3638   17.3861 N   0  0  0  0  0  0  0  0  0  0  0  0
   45.2946   -0.8750   16.8306 C   0  0  0  0  0  0  0  0  0  0  0  0
   46.1774   -1.6952   17.4693 C   0  0  2  0  0  0  0  0  0  0  0  0
   45.1247   -1.0146   15.3319 C   0  0  2  0  0  0  0  0  0  0  0  0
   46.5347   -1.5510   18.8193 C   0  0  0  0  0  0  0  0  0  0  0  0
   45.8586   -2.0206   14.7321 C   0  0  2  0  0  0  0  0  0  0  0  0
   46.8245   -2.6026   15.4060 C   0  0  0  0  0  0  0  0  0  0  0  0
   44.4425    0.0838   14.5254 C   0  0  0  0  0  0  0  0  0  0  0  0
   46.9937   -2.4867   16.7165 C   0  0  0  0  0  0  0  0  0  0  0  0
   44.6982   -0.1428   13.1961 C   0  0  1  0  0  0  0  0  0  0  0  0
   43.8890    0.7797   12.3692 C   0  0  0  0  0  0  0  0  0  0  0  0
   45.9217   -0.4965   12.7151 C   0  0  0  0  0  0  0  0  0  0  0  0
   46.3359   -1.7434   13.3081 C   0  0  0  0  0  0  0  0  0  0  0  0
  1  2  1  0
  2  3  1  0
  3  4  1  0
  1  5  1  0
  4  5  1  0
  4  6  1  6
  6  7  1  0
  6  8  1  0
  7  9  1  1
  8 10  1  0
 10 11  1  1
  8 12  1  6
  7 13  1  0
 11 13  1  0
 12 14  1  0
 14 15  1  6
 14 16  1  0
 10 17  1  0
 16 17  1  0
M  END
$$$$
16
     RDKit          3D

 17 20  0  0  0  0  0  0  0  0999 V2000
   42.9080    1.3228   18.0138 N   0  0  0  0  0  0  0  0  0  0  0  0
   43.9832    1.7227   18.3926 C   0  0  0  0  0  0  0  0  0  0  0  0
   42.8695    0.3948   17.0033 C   0  0  0  0  0  0  0  0  0  0  0  0
   44.2236    0.0273   16.6850 C   0  0  1  0  0  0  0  0  0  0  0  0
   45.0955    0.9716   17.8637 C   0  0  0  0  0  0  0  0  0  0  0  0
   46.4468    0.8102   17.9674 C   0  0  0  0  0  0  0  0  0  0  0  0
   45.0317   -0.7375   15.9757 C   0  0  1  0  0  0  0  0  0  0  0  0
   46.3447   -1.0186   16.1627 C   0  0  2  0  0  0  0  0  0  0  0  0
   46.9785   -2.0105   15.3495 C   0  0  0  0  0  0  0  0  0  0  0  0
   44.1733   -1.4584   14.8135 C   0  0  0  0  0  0  0  0  0  0  0  0
   46.2879   -2.5680   14.2346 C   0  0  1  0  0  0  0  0  0  0  0  0
   47.0205   -0.3387   17.3611 C   0  0  0  0  0  0  0  0  0  0  0  0
   45.0933   -1.9957   13.8428 C   0  0  1  0  0  0  0  0  0  0  0  0
   44.4505   -2.3702   12.5786 C   0  0  0  0  0  0  0  0  0  0  0  0
   45.3880   -2.5314   11.5381 C   0  0  0  0  0  0  0  0  0  0  0  0
   46.4364   -3.5200   11.9776 C   0  0  0  0  0  0  0  0  0  0  0  0
   47.0351   -3.3102   13.2436 C   0  0  0  0  0  0  0  0  0  0  0  0
  1  2  1  0
  1  3  1  0
  4  3  1  1
  2  5  1  0
  4  5  1  0
  5  6  1  0
  4  7  1  0
  7  8  1  0
  8  9  1  1
  7 10  1  1
 11  9  1  6
  6 12  1  0
  8 12  1  0
 13 10  1  1
 11 13  1  0
 13 14  1  0
 14 15  1  0
 15 16  1  0
 11 17  1  0
 16 17  1  0
M  END
$$$$
17
     RDKit          3D

 17 19  0  0  0  0  0  0  0  0999 V2000
   43.4362    0.9801   18.3618 C   0  0  0  0  0  0  0  0  0  0  0  0
   44.6781    0.5296   18.0170 C   0  0  0  0  0  0  0  0  0  0  0  0
   42.4576    1.1496   17.3923 N   0  0  0  0  0  0  0  0  0  0  0  0
   45.7694    0.4273   18.8906 C   0  0  0  0  0  0  0  0  0  0  0  0
   46.9819   -0.2560   18.5773 C   0  0  0  0  0  0  0  0  0  0  0  0
   44.9445    0.1178   16.6445 C   0  0  2  0  0  0  0  0  0  0  0  0
   43.9213    0.2611   15.7563 C   0  0  1  0  0  0  0  0  0  0  0  0
   47.1172   -0.6541   17.2707 C   0  0  0  0  0  0  0  0  0  0  0  0
   44.2161   -0.3491   14.4885 C   0  0  0  0  0  0  0  0  0  0  0  0
   41.2430    1.6036   17.7233 N   0  0  0  0  0  0  0  0  0  0  0  0
   46.1372   -0.5581   16.4326 C   0  0  2  0  0  0  0  0  0  0  0  0
   42.7346    0.7568   16.1146 C   0  0  0  0  0  0  0  0  0  0  0  0
   46.5348   -1.1106   14.9989 C   0  0  0  0  0  0  0  0  0  0  0  0
   45.3699   -0.9477   14.1213 C   0  0  0  0  0  0  0  0  0  0  0  0
   45.6634   -1.5326   12.7422 C   0  0  0  0  0  0  0  0  0  0  0  0
   44.4157   -1.6211   12.0230 C   0  0  0  0  0  0  0  0  0  0  0  0
   44.1514   -0.5764   11.0397 C   0  0  0  0  0  0  0  0  0  0  0  0
  1  2  1  0
  1  3  1  0
  2  4  1  0
  4  5  1  0
  6  2  1  1
  6  7  1  0
  5  8  1  0
  7  9  1  1
  3 10  1  0
  6 11  1  0
 11  8  1  6
  3 12  1  0
  7 12  1  0
 11 13  1  0
  9 14  1  0
 13 14  1  0
 14 15  1  0
 15 16  1  0
 16 17  1  0
M  END
$$$$
18
     RDKit          3D

 17 19  0  0  0  0  0  0  0  0999 V2000
   46.9756   -3.1603   14.3610 C   0  0  0  0  0  0  0  0  0  0  0  0
   46.1787   -2.2103   14.9665 N   0  0  0  0  0  0  0  0  0  0  0  0
   46.1844   -4.1274   13.5269 C   0  0  1  0  0  0  0  0  0  0  0  0
   46.5952   -1.3793   15.9428 C   0  0  0  0  0  0  0  0  0  0  0  0
   45.4629   -1.4718   13.8169 C   0  0  2  0  0  0  0  0  0  0  0  0
   44.7197   -2.4589   12.9185 C   0  0  0  0  0  0  0  0  0  0  0  0
   45.1095   -4.7646   14.2939 N   0  0  0  0  0  0  0  0  0  0  0  0
   45.6365   -0.2381   15.9968 C   0  0  2  0  0  0  0  0  0  0  0  0
   45.5302   -3.4585   12.3437 C   0  0  2  0  0  0  0  0  0  0  0  0
   46.4215   -0.6067   13.0574 C   0  0  0  0  0  0  0  0  0  0  0  0
   44.8564   -0.1295   17.3902 C   0  0  0  0  0  0  0  0  0  0  0  0
   44.5564   -0.5020   14.7573 C   0  0  0  0  0  0  0  0  0  0  0  0
   45.0940   -4.2134   11.2966 C   0  0  0  0  0  0  0  0  0  0  0  0
   43.7169    0.6924   17.3337 C   0  0  0  0  0  0  0  0  0  0  0  0
   42.7290    0.5977   18.2450 N   0  0  0  0  0  0  0  0  0  0  0  0
   43.9658   -5.1216   11.7494 C   0  0  0  0  0  0  0  0  0  0  0  0
   44.3794   -5.8035   13.3266 C   0  0  0  0  0  0  0  0  0  0  0  0
  1  2  1  0
  3  1  1  1
  2  4  1  0
  2  5  1  0
  5  6  1  0
  3  7  1  0
  4  8  1  0
  3  9  1  0
  9  6  1  1
  5 10  1  6
  8 11  1  1
  5 12  1  0
  8 12  1  0
  9 13  1  0
 11 14  1  0
 14 15  1  0
 13 16  1  0
  7 17  1  0
 16 17  1  0
M  END
$$$$
19
     RDKit          3D

 17 19  0  0  0  0  0  0  0  0999 V2000
   44.5604    1.5799   18.8503 C   0  0  0  0  0  0  0  0  0  0  0  0
   43.2812    1.5169   18.3363 C   0  0  0  0  0  0  0  0  0  0  0  0
   45.6086    0.8095   18.2740 C   0  0  0  0  0  0  0  0  0  0  0  0
   45.2840    0.0309   17.0751 C   0  0  0  0  0  0  0  0  0  0  0  0
   43.9685    0.1354   16.5510 C   0  0  1  0  0  0  0  0  0  0  0  0
   43.7724   -0.5957   15.4004 C   0  0  0  0  0  0  0  0  0  0  0  0
   44.7309   -1.3449   14.8247 N   0  0  0  0  0  0  0  0  0  0  0  0
   42.9601    0.8679   17.2541 C   0  0  0  0  0  0  0  0  0  0  0  0
   46.4206   -0.7831   16.5173 C   0  0  0  0  0  0  0  0  0  0  0  0
   44.5681   -1.9854   13.5690 C   0  0  1  0  0  0  0  0  0  0  0  0
   46.1869   -1.1361   15.0974 C   0  0  0  0  0  0  0  0  0  0  0  0
   44.7553   -1.3754   12.3905 C   0  0  0  0  0  0  0  0  0  0  0  0
   44.3919   -2.0820   11.1992 C   0  0  0  0  0  0  0  0  0  0  0  0
   44.1853   -3.5213   11.4762 C   0  0  0  0  0  0  0  0  0  0  0  0
   44.2774   -3.3626   13.7356 C   0  0  0  0  0  0  0  0  0  0  0  0
   44.1521   -4.1288   12.5950 C   0  0  0  0  0  0  0  0  0  0  0  0
   43.9050   -5.8878   12.6886 Cl  0  0  0  0  0  0  0  0  0  0  0  0
  1  2  1  0
  1  3  1  0
  3  4  1  0
  4  5  1  0
  5  6  1  1
  6  7  1  0
  2  8  1  0
  5  8  1  0
  4  9  1  0
 10  7  1  1
  7 11  1  0
  9 11  1  0
 10 12  1  0
 12 13  1  0
 13 14  1  0
 10 15  1  0
 14 16  1  0
 15 16  1  0
 16 17  1  0
M  END
$$$$
2
     RDKit          3D

 13 14  0  0  0  0  0  0  0  0999 V2000
   43.2352    1.2716   18.0171 C   0  0  0  0  0  0  0  0  0  0  0  0
   44.5574    1.3256   18.1198 C   0  0  0  0  0  0  0  0  0  0  0  0
   42.5750    0.5561   16.9984 C   0  0  0  0  0  0  0  0  0  0  0  0
   43.2515   -0.2197   16.2056 C   0  0  0  0  0  0  0  0  0  0  0  0
   45.3366    0.4177   17.3221 C   0  0  0  0  0  0  0  0  0  0  0  0
   44.6359   -0.3189   16.3516 C   0  0  0  0  0  0  0  0  0  0  0  0
   45.5108   -1.2469   15.4758 C   0  0  0  0  0  0  0  0  0  0  0  0
   46.4616   -1.9086   15.8984 N   0  0  0  0  0  0  0  0  0  0  0  0
   47.1083   -2.7363   15.1074 C   0  0  0  0  0  0  0  0  0  0  0  0
   45.1735   -1.0994   14.0498 C   0  0  0  0  0  0  0  0  0  0  0  0
   45.9750   -2.1045   13.3730 C   0  0  0  0  0  0  0  0  0  0  0  0
   46.8414   -2.9165   13.7994 C   0  0  0  0  0  0  0  0  0  0  0  0
   45.8434   -2.0605   11.9425 O   0  0  0  0  0  0  0  0  0  0  0  0
  1  2  1  0
  1  3  1  0
  3  4  1  0
  2  5  1  0
  4  6  1  0
  5  6  1  0
  6  7  1  0
  7  8  2  0
  8  9  1  0
  7 10  1  0
 10 11  1  0
  9 12  2  0
 11 12  1  0
 11 13  2  0
M  END
$$$$
20
     RDKit          3D

 17 19  0  0  0  0  0  0  0  0999 V2000
   42.9062    0.9397   17.6172 C   0  0  0  0  0  0  0  0  0  0  0  0
   43.7748    1.6259   18.3725 C   0  0  0  0  0  0  0  0  0  0  0  0
   43.8147    0.2003   16.8647 C   0  0  0  0  0  0  0  0  0  0  0  0
   43.4121   -0.6643   15.7596 C   0  0  0  0  0  0  0  0  0  0  0  0
   44.4911   -1.2642   14.9776 C   0  0  0  0  0  0  0  0  0  0  0  0
   45.8433   -0.9667   15.2294 C   0  0  1  0  0  0  0  0  0  0  0  0
   44.2126   -2.2199   13.8363 C   0  0  0  0  0  0  0  0  0  0  0  0
   45.0650    1.6058   18.4881 C   0  0  0  0  0  0  0  0  0  0  0  0
   45.2527   -2.5882   13.1178 C   0  0  0  0  0  0  0  0  0  0  0  0
   45.3850    0.4992   17.4656 C   0  0  2  0  0  0  0  0  0  0  0  0
   46.4242   -0.1475   16.7544 C   0  0  0  0  0  0  0  0  0  0  0  0
   46.5943   -2.3606   13.5006 C   0  0  0  0  0  0  0  0  0  0  0  0
   46.8785   -1.5846   14.5611 C   0  0  0  0  0  0  0  0  0  0  0  0
   44.8808   -3.2730   11.7617 C   0  0  0  0  0  0  0  0  0  0  0  0
   45.0273   -4.7212   11.8793 C   0  0  0  0  0  0  0  0  0  0  0  0
   44.2308   -5.4658   12.9360 C   0  0  0  0  0  0  0  0  0  0  0  0
   43.1187   -6.1373   12.3731 C   0  0  0  0  0  0  0  0  0  0  0  0
  1  2  1  0
  1  3  1  0
  3  4  1  0
  4  5  1  0
  5  6  1  0
  5  7  1  0
  2  8  1  0
  7  9  1  0
  3 10  1  0
 10  8  1  6
  6 11  1  1
 10 11  1  0
  9 12  1  0
  6 13  1  0
 12 13  1  0
  9 14  1  0
 14 15  1  0
 15 16  1  0
 16 17  1  0
M  END
$$$$
21
     RDKit          3D

 17 17  0  0  0  0  0  0  0  0999 V2000
   44.5604    1.5799   18.8503 C   0  0  0  0  0  0  0  0  0  0  0  0
   43.2812    1.5169   18.3363 C   0  0  0  0  0  0  0  0  0  0  0  0
   45.6086    0.8095   18.2740 C   0  0  0  0  0  0  0  0  0  0  0  0
   45.0867    0.0133   17.2883 C   0  0  1  0  0  0  0  0  0  0  0  0
   43.1207    0.6942   17.1836 C   0  0  2  0  0  0  0  0  0  0  0  0
   41.7547    0.7116   16.7750 O   0  0  0  0  0  0  0  0  0  0  0  0
   43.9950   -0.0299   16.7716 C   0  0  0  0  0  0  0  0  0  0  0  0
   46.2628   -0.7797   16.5431 C   0  0  0  0  0  0  0  0  0  0  0  0
   46.1396   -0.8470   15.1584 C   0  0  0  0  0  0  0  0  0  0  0  0
   46.2299   -2.2861   14.5510 C   0  0  0  0  0  0  0  0  0  0  0  0
   45.8155   -2.4314   13.2120 C   0  0  1  0  0  0  0  0  0  0  0  0
   45.4896   -3.7712   12.7766 C   0  0  0  0  0  0  0  0  0  0  0  0
   44.4789   -4.3716   13.7509 N   0  0  0  0  0  0  0  0  0  0  0  0
   44.2882   -5.7720   13.5222 C   0  0  0  0  0  0  0  0  0  0  0  0
   43.3716   -6.0288   12.4174 C   0  0  0  0  0  0  0  0  0  0  0  0
   44.6660   -1.5138   12.8058 C   0  0  0  0  0  0  0  0  0  0  0  0
   44.4871   -1.0940   11.3783 C   0  0  0  0  0  0  0  0  0  0  0  0
  1  2  1  0
  1  3  1  0
  3  4  1  0
  2  5  1  0
  5  6  1  1
  4  7  1  0
  5  7  1  0
  4  8  1  6
  8  9  1  0
  9 10  1  0
 11 10  1  1
 11 12  1  0
 12 13  1  0
 13 14  1  0
 14 15  1  0
 11 16  1  0
 16 17  1  0
M  END
$$$$
22
     RDKit          3D

 17 19  0  0  0  0  0  0  0  0999 V2000
   42.9080    1.3228   18.0138 N   0  0  0  0  0  0  0  0  0  0  0  0
   43.9832    1.7227   18.3926 C   0  0  0  0  0  0  0  0  0  0  0  0
   42.8695    0.3948   17.0033 C   0  0  0  0  0  0  0  0  0  0  0  0
   44.2236    0.0273   16.6850 C   0  0  1  0  0  0  0  0  0  0  0  0
   45.0955    0.9716   17.8637 C   0  0  0  0  0  0  0  0  0  0  0  0
   46.4468    0.8102   17.9674 C   0  0  0  0  0  0  0  0  0  0  0  0
   45.0317   -0.7375   15.9757 C   0  0  1  0  0  0  0  0  0  0  0  0
   46.3447   -1.0186   16.1627 C   0  0  2  0  0  0  0  0  0  0  0  0
   46.9785   -2.0105   15.3495 C   0  0  0  0  0  0  0  0  0  0  0  0
   44.1733   -1.4584   14.8135 C   0  0  0  0  0  0  0  0  0  0  0  0
   46.2879   -2.5680   14.2346 C   0  0  0  0  0  0  0  0  0  0  0  0
   47.0205   -0.3387   17.3611 C   0  0  0  0  0  0  0  0  0  0  0  0
   45.0933   -1.9957   13.8428 C   0  0  1  0  0  0  0  0  0  0  0  0
   44.4505   -2.3702   12.5786 C   0  0  0  0  0  0  0  0  0  0  0  0
   45.3880   -2.5314   11.5381 F   0  0  0  0  0  0  0  0  0  0  0  0
   43.7488   -1.1091   12.2883 F   0  0  0  0  0  0  0  0  0  0  0  0
   43.9641   -3.6489   12.5656 F   0  0  0  0  0  0  0  0  0  0  0  0
  1  2  1  0
  1  3  1  0
  4  3  1  1
  2  5  1  0
  4  5  1  0
  5  6  1  0
  4  7  1  0
  7  8  1  0
  8  9  1  1
  7 10  1  1
  9 11  1  0
  6 12  1  0
  8 12  1  0
 10 13  1  0
 11 13  1  0
 13 14  1  1
 14 15  1  0
 14 16  1  0
 14 17  1  0
M  END
$$$$
23
     RDKit          3D

 17 18  0  0  0  0  0  0  0  0999 V2000
   42.9062    0.9397   17.6172 C   0  0  0  0  0  0  0  0  0  0  0  0
   43.5291    0.1454   16.8472 C   0  0  0  0  0  0  0  0  0  0  0  0
   44.8988    0.0753   17.1283 C   0  0  0  0  0  0  0  0  0  0  0  0
   43.4017    1.7367   18.6536 C   0  0  0  0  0  0  0  0  0  0  0  0
   44.7162    1.6417   18.9546 C   0  0  0  0  0  0  0  0  0  0  0  0
   45.5017    0.7802   18.1567 C   0  0  0  0  0  0  0  0  0  0  0  0
   45.8329   -0.8243   16.3817 C   0  0  0  0  0  0  0  0  0  0  0  0
   46.6036   -1.6734   17.0094 O   0  0  0  0  0  0  0  0  0  0  0  0
   46.0658   -0.6455   15.0518 N   0  0  0  0  0  0  0  0  0  0  0  0
   46.6973   -1.5659   14.2201 C   0  0  0  0  0  0  0  0  0  0  0  0
   45.3027    0.3396   14.2970 C   0  0  0  0  0  0  0  0  0  0  0  0
   44.8876   -0.1905   12.9303 C   0  0  0  0  0  0  0  0  0  0  0  0
   45.8444   -1.5525   12.9351 C   0  0  2  0  0  0  0  0  0  0  0  0
   45.1742   -2.6979   12.5008 C   0  0  0  0  0  0  0  0  0  0  0  0
   45.9220   -3.8159   12.1681 C   0  0  0  0  0  0  0  0  0  0  0  0
   45.3014   -5.1443   12.6974 C   0  0  0  0  0  0  0  0  0  0  0  0
   44.1414   -4.9333   13.4653 N   0  0  0  0  0  0  0  0  0  0  0  0
  1  2  1  0
  2  3  1  0
  1  4  1  0
  4  5  1  0
  3  6  1  0
  5  6  1  0
  3  7  1  0
  7  8  2  0
  7  9  1  0
  9 10  1  0
  9 11  1  0
 11 12  1  0
 10 13  1  0
 12 13  1  0
 13 14  1  1
 14 15  1  0
 15 16  1  0
 16 17  1  0
M  END
$$$$
24
     RDKit          3D

 18 20  0  0  0  0  0  0  0  0999 V2000
   43.5958    1.2915   17.9017 C   0  0  0  0  0  0  0  0  0  0  0  0
   44.7920    0.8446   17.7606 C   0  0  1  0  0  0  0  0  0  0  0  0
   42.5251    0.7827   17.1583 C   0  0  0  0  0  0  0  0  0  0  0  0
   42.7809   -0.0261   16.1589 C   0  0  0  0  0  0  0  0  0  0  0  0
   45.9380    1.2727   18.6343 C   0  0  0  0  0  0  0  0  0  0  0  0
   45.0624   -0.1370   16.7931 C   0  0  2  0  0  0  0  0  0  0  0  0
   44.0290   -0.5893   16.0632 C   0  0  2  0  0  0  0  0  0  0  0  0
   44.4743   -1.4363   15.0898 N   0  0  0  0  0  0  0  0  0  0  0  0
   46.5281   -0.7492   16.7895 C   0  0  0  0  0  0  0  0  0  0  0  0
   47.2406   -0.5619   17.8502 C   0  0  0  0  0  0  0  0  0  0  0  0
   47.1289    0.6092   18.6698 C   0  0  0  0  0  0  0  0  0  0  0  0
   45.0681   -1.2844   13.9545 C   0  0  0  0  0  0  0  0  0  0  0  0
   45.4575   -2.4292   13.1392 C   0  0  1  0  0  0  0  0  0  0  0  0
   45.2421   -0.0703   13.3811 O   0  0  0  0  0  0  0  0  0  0  0  0
   45.7071   -3.5508   13.8863 O   0  0  0  0  0  0  0  0  0  0  0  0
   44.3156   -2.8480   12.1587 C   0  0  0  0  0  0  0  0  0  0  0  0
   45.0034   -4.6304   13.4261 C   0  0  0  0  0  0  0  0  0  0  0  0
   44.2206   -4.2918   12.2167 C   0  0  0  0  0  0  0  0  0  0  0  0
  2  1  1  1
  1  3  1  0
  3  4  1  0
  2  5  1  0
  2  6  1  0
  4  7  1  0
  6  7  1  0
  7  8  1  6
  6  9  1  1
  9 10  1  0
  5 11  1  0
 10 11  1  0
  8 12  1  0
 13 12  1  1
 12 14  2  0
 13 15  1  0
 13 16  1  0
 15 17  1  0
 16 18  1  0
 17 18  1  0
M  END
$$$$
25
     RDKit          3D

 18 20  0  0  0  0  0  0  0  0999 V2000
   42.6956    1.1982   17.6432 N   0  0  0  0  0  0  0  0  0  0  0  0
   43.6947    0.7926   17.6786 C   0  0  0  0  0  0  0  0  0  0  0  0
   44.9892    0.1066   17.5826 C   0  0  2  0  0  0  0  0  0  0  0  0
   45.3979   -0.3705   16.3836 C   0  0  1  0  0  0  0  0  0  0  0  0
   45.7216   -1.7049   16.2352 N   0  0  0  0  0  0  0  0  0  0  0  0
   45.2877    0.2728   15.1133 O   0  0  0  0  0  0  0  0  0  0  0  0
   45.0572   -0.6985   14.1962 C   0  0  2  0  0  0  0  0  0  0  0  0
   45.6628   -1.9892   14.7865 C   0  0  2  0  0  0  0  0  0  0  0  0
   45.6776   -0.5800   12.7680 C   0  0  0  0  0  0  0  0  0  0  0  0
   46.2553   -2.1373   17.4738 C   0  0  0  0  0  0  0  0  0  0  0  0
   45.1400   -3.1142   14.0812 C   0  0  0  0  0  0  0  0  0  0  0  0
   45.7231   -0.5380   18.6578 C   0  0  0  0  0  0  0  0  0  0  0  0
   45.3481   -2.9462   12.5496 C   0  0  1  0  0  0  0  0  0  0  0  0
   46.2275   -1.5346   18.5666 C   0  0  0  0  0  0  0  0  0  0  0  0
   44.6940   -4.1793   11.8934 C   0  0  0  0  0  0  0  0  0  0  0  0
   44.9428   -1.7128   11.9393 C   0  0  0  0  0  0  0  0  0  0  0  0
   44.8241   -5.4478   12.7283 C   0  0  0  0  0  0  0  0  0  0  0  0
   43.7773   -6.4277   12.4127 C   0  0  0  0  0  0  0  0  0  0  0  0
  1  2  3  0
  3  2  1  1
  3  4  1  0
  4  5  1  0
  4  6  1  6
  6  7  1  0
  5  8  1  0
  7  8  1  0
  7  9  1  6
  5 10  1  0
  8 11  1  1
  3 12  1  0
 11 13  1  0
 10 14  1  0
 12 14  1  0
 13 15  1  6
  9 16  1  0
 13 16  1  0
 15 17  1  0
 17 18  1  0
M  END
$$$$
26
     RDKit          3D

 18 21  0  0  0  0  0  0  0  0999 V2000
   43.9042    1.6019   18.5628 C   0  0  0  0  0  0  0  0  0  0  0  0
   45.0790    0.9529   18.2449 C   0  0  0  0  0  0  0  0  0  0  0  0
   42.7841    1.1368   17.7770 C   0  0  0  0  0  0  0  0  0  0  0  0
   42.9455    0.2538   16.7187 C   0  0  0  0  0  0  0  0  0  0  0  0
   44.9605   -0.0519   17.2254 C   0  0  2  0  0  0  0  0  0  0  0  0
   46.3609   -0.6284   17.0279 C   0  0  0  0  0  0  0  0  0  0  0  0
   44.0832   -0.2868   16.4711 C   0  0  0  0  0  0  0  0  0  0  0  0
   44.2489   -1.1779   15.3799 C   0  0  2  0  0  0  0  0  0  0  0  0
   46.6010   -1.4551   15.9725 C   0  0  0  0  0  0  0  0  0  0  0  0
   45.4627   -1.7994   15.1301 N   0  0  0  0  0  0  0  0  0  0  0  0
   45.5850   -2.7936   14.0994 C   0  0  1  0  0  0  0  0  0  0  0  0
   46.0055   -4.0508   14.4592 C   0  0  0  0  0  0  0  0  0  0  0  0
   45.2299   -5.1502   13.7220 C   0  0  0  0  0  0  0  0  0  0  0  0
   44.3744   -4.6918   12.7709 C   0  0  2  0  0  0  0  0  0  0  0  0
   44.3120   -2.6739   13.3303 C   0  0  1  0  0  0  0  0  0  0  0  0
   43.8855   -3.5243   12.5825 C   0  0  0  0  0  0  0  0  0  0  0  0
   43.7877   -1.3739   14.0804 N   0  0  0  0  0  0  0  0  0  0  0  0
   43.6294   -6.0388   11.7561 Cl  0  0  0  0  0  0  0  0  0  0  0  0
  1  2  1  0
  1  3  1  0
  3  4  1  0
  5  2  1  6
  5  6  1  0
  4  7  1  0
  5  7  1  0
  7  8  1  0
  6  9  1  0
  8 10  1  0
  9 10  1  0
 10 11  1  0
 11 12  1  1
 12 13  1  0
 13 14  1  0
 11 15  1  0
 14 16  1  0
 15 16  1  1
  8 17  1  6
 15 17  1  0
 14 18  1  1
M  END
$$$$
27
     RDKit          3D

 18 18  0  0  0  0  0  0  0  0999 V2000
   46.9756   -3.1603   14.3610 C   0  0  0  0  0  0  0  0  0  0  0  0
   46.1787   -2.2103   14.9665 N   0  0  0  0  0  0  0  0  0  0  0  0
   46.2202   -3.7861   13.2667 C   0  0  1  0  0  0  0  0  0  0  0  0
   46.5748   -1.4953   16.1042 C   0  0  0  0  0  0  0  0  0  0  0  0
   45.4300   -4.8795   13.7387 C   0  0  0  0  0  0  0  0  0  0  0  0
   45.7467   -2.9781   12.1539 C   0  0  0  0  0  0  0  0  0  0  0  0
   44.6761   -1.9823   12.6646 C   0  0  2  0  0  0  0  0  0  0  0  0
   44.2765   -0.9754   11.6296 C   0  0  0  0  0  0  0  0  0  0  0  0
   45.0146   -5.9818   12.8654 C   0  0  0  0  0  0  0  0  0  0  0  0
   45.3160   -1.1799   13.8964 C   0  0  0  0  0  0  0  0  0  0  0  0
   44.9073   -0.0529   14.3357 O   0  0  0  0  0  0  0  0  0  0  0  0
   43.6344   -5.8645   12.3429 C   0  0  0  0  0  0  0  0  0  0  0  0
   45.5882   -0.9870   17.0872 C   0  0  0  0  0  0  0  0  0  0  0  0
   45.5166    0.5076   17.1808 C   0  0  0  0  0  0  0  0  0  0  0  0
   44.0329   -0.0978   11.0773 N   0  0  0  0  0  0  0  0  0  0  0  0
   44.7768    0.9758   18.3990 C   0  0  0  0  0  0  0  0  0  0  0  0
   43.1588   -7.0254   11.4603 C   0  0  0  0  0  0  0  0  0  0  0  0
   43.4910    1.3573   18.2522 C   0  0  0  0  0  0  0  0  0  0  0  0
  1  2  1  0
  1  3  1  0
  2  4  1  0
  3  5  1  1
  3  6  1  0
  6  7  1  0
  7  8  1  6
  5  9  1  0
  2 10  1  0
  7 10  1  0
 10 11  2  0
  9 12  2  3
  4 13  1  0
 13 14  1  0
  8 15  3  0
 14 16  1  0
 12 17  1  0
 16 18  1  0
M  END
$$$$
28
     RDKit          3D

 18 20  0  0  0  0  0  0  0  0999 V2000
   46.9756   -3.1603   14.3610 C   0  0  0  0  0  0  0  0  0  0  0  0
   46.1787   -2.2103   14.9665 N   0  0  0  0  0  0  0  0  0  0  0  0
   46.1844   -4.1274   13.5269 C   0  0  1  0  0  0  0  0  0  0  0  0
   46.5952   -1.3793   15.9428 C   0  0  0  0  0  0  0  0  0  0  0  0
   45.4629   -1.4718   13.8169 C   0  0  2  0  0  0  0  0  0  0  0  0
   44.7197   -2.4589   12.9185 C   0  0  0  0  0  0  0  0  0  0  0  0
   45.1095   -4.7646   14.2939 N   0  0  0  0  0  0  0  0  0  0  0  0
   45.6365   -0.2381   15.9968 C   0  0  1  0  0  0  0  0  0  0  0  0
   45.5302   -3.4585   12.3437 C   0  0  2  0  0  0  0  0  0  0  0  0
   46.4215   -0.6067   13.0574 C   0  0  0  0  0  0  0  0  0  0  0  0
   44.6962   -0.4750   14.8438 C   0  0  0  0  0  0  0  0  0  0  0  0
   44.7417   -4.3842   11.5893 C   0  0  0  0  0  0  0  0  0  0  0  0
   44.3299   -5.5696   13.3020 C   0  0  0  0  0  0  0  0  0  0  0  0
   44.8081   -0.2032   17.2364 C   0  0  0  0  0  0  0  0  0  0  0  0
   43.7277    0.7028   17.1576 N   0  0  0  0  0  0  0  0  0  0  0  0
   44.9428   -1.0663   18.2166 O   0  0  0  0  0  0  0  0  0  0  0  0
   43.7695   -5.0418   12.2072 C   0  0  0  0  0  0  0  0  0  0  0  0
   42.6554    0.7748   18.1191 C   0  0  0  0  0  0  0  0  0  0  0  0
  1  2  1  0
  3  1  1  1
  2  4  1  0
  2  5  1  0
  5  6  1  0
  3  7  1  0
  4  8  1  0
  3  9  1  0
  9  6  1  1
  5 10  1  6
  5 11  1  0
  8 11  1  0
  9 12  1  0
  7 13  1  0
  8 14  1  1
 14 15  1  0
 14 16  2  0
 12 17  1  0
 13 17  1  0
 15 18  1  0
M  END
$$$$
29
     RDKit          3D

 18 19  0  0  0  0  0  0  0  0999 V2000
   45.5654   -5.9514   13.5958 C   0  0  0  0  0  0  0  0  0  0  0  0
   45.7909   -4.7104   13.7455 C   0  0  2  0  0  0  0  0  0  0  0  0
   44.6215   -6.3912   12.5557 C   0  0  0  0  0  0  0  0  0  0  0  0
   46.5263   -4.0636   14.7071 C   0  0  0  0  0  0  0  0  0  0  0  0
   43.9697   -5.4749   11.6732 C   0  0  0  0  0  0  0  0  0  0  0  0
   45.0865   -3.6104   12.7465 C   0  0  1  0  0  0  0  0  0  0  0  0
   44.1398   -4.1371   11.8651 C   0  0  0  0  0  0  0  0  0  0  0  0
   46.6456   -2.5974   14.7459 C   0  0  2  0  0  0  0  0  0  0  0  0
   47.2779   -1.9647   15.8433 C   0  0  0  0  0  0  0  0  0  0  0  0
   46.1673   -1.4205   16.8032 N   0  0  0  0  0  0  0  0  0  0  0  0
   45.4381   -2.2727   13.0939 C   0  0  2  0  0  0  0  0  0  0  0  0
   44.3091   -1.5701   13.4571 C   0  0  0  0  0  0  0  0  0  0  0  0
   44.3360   -0.1804   12.8278 C   0  0  0  0  0  0  0  0  0  0  0  0
   44.2195   -0.2646   11.4337 C   0  0  0  0  0  0  0  0  0  0  0  0
   46.2979   -0.3703   17.5394 C   0  0  0  0  0  0  0  0  0  0  0  0
   45.0500    0.0561   18.3018 C   0  0  0  0  0  0  0  0  0  0  0  0
   43.9275    0.5993   17.5114 C   0  0  0  0  0  0  0  0  0  0  0  0
   42.8710    1.3942   18.1459 C   0  0  0  0  0  0  0  0  0  0  0  0
  2  1  1  1
  1  3  1  0
  2  4  1  0
  3  5  1  0
  2  6  1  0
  5  7  1  0
  6  7  1  1
  4  8  1  0
  8  9  1  1
  9 10  1  0
  6 11  1  0
  8 11  1  0
 11 12  1  1
 12 13  1  0
 13 14  1  0
 10 15  1  0
 15 16  1  0
 16 17  1  0
 17 18  1  0
M  END
$$$$
3
     RDKit          3D

 14 15  0  0  0  0  0  0  0  0999 V2000
   45.3585   -6.3765   13.4817 C   0  0  0  0  0  0  0  0  0  0  0  0
   44.4106   -6.0990   12.5782 C   0  0  0  0  0  0  0  0  0  0  0  0
   44.1939   -4.7504   12.2197 C   0  0  0  0  0  0  0  0  0  0  0  0
   45.0306   -3.7304   12.7368 C   0  0  0  0  0  0  0  0  0  0  0  0
   43.3559   -7.0926   12.0095 C   0  0  0  0  0  0  0  0  0  0  0  0
   45.4473   -7.7249   13.8856 N   0  0  0  0  0  0  0  0  0  0  0  0
   44.8253   -2.2849   12.4264 C   0  0  0  0  0  0  0  0  0  0  0  0
   44.8488   -8.6389   12.9774 C   0  0  0  0  0  0  0  0  0  0  0  0
   43.7404   -8.1646   11.9370 N   0  0  0  0  0  0  0  0  0  0  0  0
   45.5858   -1.2814   13.0550 C   0  0  0  0  0  0  0  0  0  0  0  0
   44.8767   -0.1093   13.3665 C   0  0  0  0  0  0  0  0  0  0  0  0
   44.0075    0.1691   12.2295 C   0  0  0  0  0  0  0  0  0  0  0  0
   43.8832   -0.6849   11.1430 C   0  0  0  0  0  0  0  0  0  0  0  0
   44.2791   -2.0186   11.3973 C   0  0  0  0  0  0  0  0  0  0  0  0
  1  2  1  0
  2  3  1  0
  3  4  1  0
  2  5  1  0
  1  6  1  0
  4  7  1  0
  6  8  1  0
  5  9  1  0
  8  9  1  0
  7 10  1  0
 10 11  1  0
 11 12  1  0
 12 13  1  0
  7 14  1  0
 13 14  1  0
M  END
$$$$
30
     RDKit          3D

 18 19  0  0  0  0  0  0  0  0999 V2000
   42.6956    1.1982   17.6432 N   0  0  0  0  0  0  0  0  0  0  0  0
   43.5899    0.4685   17.1413 C   0  0  2  0  0  0  0  0  0  0  0  0
   44.7723    0.2992   17.9868 C   0  0  0  0  0  0  0  0  0  0  0  0
   45.8858   -0.5110   17.4408 C   0  0  0  0  0  0  0  0  0  0  0  0
   45.8796   -0.8472   16.1244 C   0  0  2  0  0  0  0  0  0  0  0  0
   44.7185   -0.6435   15.3155 C   0  0  1  0  0  0  0  0  0  0  0  0
   47.0211   -1.6176   15.5547 C   0  0  0  0  0  0  0  0  0  0  0  0
   46.5745   -2.5046   14.6137 C   0  0  0  0  0  0  0  0  0  0  0  0
   43.6573    0.0907   15.8407 N   0  0  0  0  0  0  0  0  0  0  0  0
   44.6813   -1.1330   13.9876 C   0  0  0  0  0  0  0  0  0  0  0  0
   45.5734   -1.8906   13.5844 C   0  0  2  0  0  0  0  0  0  0  0  0
   45.2158   -2.9565   12.4517 C   0  0  0  0  0  0  0  0  0  0  0  0
   44.0353   -3.5837   12.7790 C   0  0  0  0  0  0  0  0  0  0  0  0
   44.0799   -5.0550   12.1602 C   0  0  0  0  0  0  0  0  0  0  0  0
   44.1359   -6.0834   13.0703 N   0  0  0  0  0  0  0  0  0  0  0  0
   44.6164   -7.1623   12.6922 C   0  0  0  0  0  0  0  0  0  0  0  0
   44.3508   -7.7014   11.5776 O   0  0  0  0  0  0  0  0  0  0  0  0
   45.4453   -7.9496   13.5791 C   0  0  0  0  0  0  0  0  0  0  0  0
  2  1  1  6
  2  3  1  0
  3  4  1  0
  5  4  1  1
  5  6  1  0
  5  7  1  0
  7  8  1  0
  2  9  1  0
  6  9  1  0
  6 10  1  6
  8 11  1  0
 10 11  1  0
 11 12  1  1
 12 13  1  0
 13 14  1  0
 14 15  1  0
 15 16  1  0
 16 17  2  0
 16 18  1  0
M  END
$$$$
31
     RDKit          3D

 18 20  0  0  0  0  0  0  0  0999 V2000
   46.0017   -5.1337   13.2614 C   0  0  0  0  0  0  0  0  0  0  0  0
   44.8786   -5.1921   12.5170 C   0  0  2  0  0  0  0  0  0  0  0  0
   45.8700   -3.8722   13.8969 N   0  0  0  0  0  0  0  0  0  0  0  0
   44.3398   -6.4727   11.9809 C   0  0  0  0  0  0  0  0  0  0  0  0
   44.9402   -3.1054   13.3570 C   0  0  1  0  0  0  0  0  0  0  0  0
   42.9258   -6.7633   12.3388 C   0  0  0  0  0  0  0  0  0  0  0  0
   44.7894   -1.7074   13.6297 C   0  0  2  0  0  0  0  0  0  0  0  0
   44.5127   -3.8273   12.2380 C   0  0  0  0  0  0  0  0  0  0  0  0
   44.9321   -0.6840   12.6326 C   0  0  0  0  0  0  0  0  0  0  0  0
   44.7002   -1.2026   14.9506 C   0  0  1  0  0  0  0  0  0  0  0  0
   44.9092   -2.1001   16.1443 N   0  0  0  0  0  0  0  0  0  0  0  0
   45.0551   -1.3796   17.3686 C   0  0  0  0  0  0  0  0  0  0  0  0
   44.6889    0.0204   17.2808 C   0  0  2  0  0  0  0  0  0  0  0  0
   44.6757    0.2104   14.9124 C   0  0  0  0  0  0  0  0  0  0  0  0
   44.6742    0.7249   16.0655 C   0  0  0  0  0  0  0  0  0  0  0  0
   44.6896    0.4320   13.5198 N   0  0  0  0  0  0  0  0  0  0  0  0
   44.6919    0.8554   18.5545 C   0  0  0  0  0  0  0  0  0  0  0  0
   43.4752    1.4153   18.8395 C   0  0  0  0  0  0  0  0  0  0  0  0
  1  2  1  0
  1  3  1  0
  2  4  1  6
  3  5  1  0
  4  6  1  0
  5  7  1  0
  2  8  1  0
  5  8  1  6
  7  9  1  1
  7 10  1  0
 10 11  1  1
 11 12  1  0
 12 13  1  0
 10 14  1  0
 13 15  1  0
 14 15  1  0
  9 16  1  0
 14 16  1  0
 13 17  1  1
 17 18  1  0
M  END
$$$$
32
     RDKit          3D

 18 20  0  0  0  0  0  0  0  0999 V2000
   42.6956    1.1982   17.6432 N   0  0  0  0  0  0  0  0  0  0  0  0
   43.5899    0.4685   17.1413 C   0  0  1  0  0  0  0  0  0  0  0  0
   44.7723    0.2992   17.9868 C   0  0  1  0  0  0  0  0  0  0  0  0
   44.8758    0.7980   19.2349 C   0  0  0  0  0  0  0  0  0  0  0  0
   43.4696   -0.2101   15.8891 N   0  0  0  0  0  0  0  0  0  0  0  0
   45.8995   -0.5512   17.6411 C   0  0  0  0  0  0  0  0  0  0  0  0
   43.8715    1.7200   19.5787 C   0  0  0  0  0  0  0  0  0  0  0  0
   45.7225   -1.1623   16.2300 C   0  0  0  0  0  0  0  0  0  0  0  0
   42.7488    1.9306   18.7924 C   0  0  0  0  0  0  0  0  0  0  0  0
   44.5600   -0.9458   15.4886 C   0  0  0  0  0  0  0  0  0  0  0  0
   44.4719   -1.5954   14.1821 C   0  0  0  0  0  0  0  0  0  0  0  0
   46.8101   -1.9518   15.7077 C   0  0  0  0  0  0  0  0  0  0  0  0
   46.6457   -2.5117   14.5768 C   0  0  0  0  0  0  0  0  0  0  0  0
   45.5182   -2.3969   13.8249 C   0  0  2  0  0  0  0  0  0  0  0  0
   45.5104   -3.0912   12.4219 C   0  0  0  0  0  0  0  0  0  0  0  0
   44.3186   -3.7823   12.2583 C   0  0  0  0  0  0  0  0  0  0  0  0
   44.5159   -5.3750   12.3591 C   0  0  0  0  0  0  0  0  0  0  0  0
   43.4057   -6.1961   12.0792 C   0  0  0  0  0  0  0  0  0  0  0  0
  2  1  1  1
  2  3  1  0
  3  4  1  1
  2  5  1  0
  3  6  1  0
  4  7  1  0
  6  8  1  0
  1  9  1  0
  7  9  1  0
  5 10  1  0
  8 10  1  0
 10 11  1  0
  8 12  1  0
 12 13  1  0
 11 14  1  0
 13 14  1  0
 14 15  1  6
 15 16  1  0
 16 17  1  0
 17 18  1  0
M  END
$$$$
33
     RDKit          3D

 18 19  0  0  0  0  0  0  0  0999 V2000
   42.9616    1.6427   18.4622 N   0  0  0  0  0  0  0  0  0  0  0  0
   43.6592    0.8942   17.7890 C   0  0  2  0  0  0  0  0  0  0  0  0
   43.3844    0.3171   16.5622 N   0  0  0  0  0  0  0  0  0  0  0  0
   44.3031   -0.4752   16.0066 C   0  0  1  0  0  0  0  0  0  0  0  0
   44.9630    0.5003   18.4206 C   0  0  0  0  0  0  0  0  0  0  0  0
   45.8899   -0.2485   17.7868 C   0  0  0  0  0  0  0  0  0  0  0  0
   44.0940   -0.9149   14.6783 N   0  0  0  0  0  0  0  0  0  0  0  0
   44.9965   -1.8706   14.1179 C   0  0  2  0  0  0  0  0  0  0  0  0
   45.5799   -0.7650   16.5850 C   0  0  1  0  0  0  0  0  0  0  0  0
   46.2611   -2.1528   14.7946 C   0  0  0  0  0  0  0  0  0  0  0  0
   46.5142   -1.6480   16.0765 C   0  0  0  0  0  0  0  0  0  0  0  0
   44.8921   -2.3551   12.7261 C   0  0  1  0  0  0  0  0  0  0  0  0
   44.2242   -3.6094   12.6644 C   0  0  0  0  0  0  0  0  0  0  0  0
   44.0178   -1.4070   11.9505 C   0  0  0  0  0  0  0  0  0  0  0  0
   45.1287   -4.8881   12.9089 C   0  0  0  0  0  0  0  0  0  0  0  0
   44.5407   -6.2074   12.5493 C   0  0  0  0  0  0  0  0  0  0  0  0
   44.6137   -0.1294   11.4659 C   0  0  0  0  0  0  0  0  0  0  0  0
   43.2309   -6.3451   12.6869 N   0  0  0  0  0  0  0  0  0  0  0  0
  2  1  1  1
  2  3  1  0
  4  3  1  6
  2  5  1  0
  5  6  1  0
  4  7  1  0
  7  8  1  0
  4  9  1  0
  9  6  1  1
  8 10  1  6
  9 11  1  0
 10 11  1  0
  8 12  1  0
 12 13  1  1
 12 14  1  0
 13 15  1  0
 15 16  1  0
 14 17  1  0
 16 18  1  0
M  END
$$$$
34
     RDKit          3D

 18 19  0  0  0  0  0  0  0  0999 V2000
   43.4362    0.9801   18.3618 C   0  0  0  0  0  0  0  0  0  0  0  0
   44.6781    0.5296   18.0170 C   0  0  0  0  0  0  0  0  0  0  0  0
   42.6665    1.1827   17.2593 N   0  0  0  0  0  0  0  0  0  0  0  0
   43.0641    0.4119   16.2680 N   0  0  0  0  0  0  0  0  0  0  0  0
   44.4016    0.0899   16.6478 C   0  0  0  0  0  0  0  0  0  0  0  0
   45.4956   -0.6018   15.9233 C   0  0  2  0  0  0  0  0  0  0  0  0
   45.1064   -1.3808   14.8004 C   0  0  1  0  0  0  0  0  0  0  0  0
   46.5881   -1.1334   16.6998 C   0  0  0  0  0  0  0  0  0  0  0  0
   44.6328   -0.8749   13.5466 C   0  0  0  0  0  0  0  0  0  0  0  0
   44.3515   -1.8079   12.4563 C   0  0  2  0  0  0  0  0  0  0  0  0
   46.1759   -2.0234   17.7128 O   0  0  0  0  0  0  0  0  0  0  0  0
   44.6208   -3.1921   12.6475 C   0  0  1  0  0  0  0  0  0  0  0  0
   44.3804   -4.1606   11.6279 C   0  0  0  0  0  0  0  0  0  0  0  0
   44.0818   -1.2045   11.1922 C   0  0  0  0  0  0  0  0  0  0  0  0
   44.1209   -5.4814   12.3638 C   0  0  0  0  0  0  0  0  0  0  0  0
   43.3935   -0.2489   10.7319 C   0  0  0  0  0  0  0  0  0  0  0  0
   45.4432   -2.7574   14.4160 C   0  0  0  0  0  0  0  0  0  0  0  0
   44.9102   -5.7612   13.4961 O   0  0  0  0  0  0  0  0  0  0  0  0
  1  2  1  0
  1  3  1  0
  3  4  1  0
  2  5  1  0
  4  5  1  0
  5  6  1  0
  6  7  1  0
  6  8  1  1
  7  9  1  6
  9 10  1  0
  8 11  1  0
 10 12  1  0
 12 13  1  6
 10 14  1  6
 13 15  1  0
 14 16  1  0
  7 17  1  0
 12 17  1  0
 15 18  1  0
M  END
$$$$
35
     RDKit          3D

 18 18  0  0  0  0  0  0  0  0999 V2000
   44.5604    1.5799   18.8503 C   0  0  0  0  0  0  0  0  0  0  0  0
   43.2812    1.5169   18.3363 C   0  0  0  0  0  0  0  0  0  0  0  0
   45.6086    0.8095   18.2740 C   0  0  0  0  0  0  0  0  0  0  0  0
   43.1444    0.5989   17.1502 C   0  0  0  0  0  0  0  0  0  0  0  0
   45.1257   -0.0328   17.2768 C   0  0  0  0  0  0  0  0  0  0  0  0
   44.0119   -0.0888   16.7208 C   0  0  0  0  0  0  0  0  0  0  0  0
   46.3008   -0.8390   16.6090 C   0  0  2  0  0  0  0  0  0  0  0  0
   46.2064   -0.9705   15.2572 O   0  0  0  0  0  0  0  0  0  0  0  0
   46.4132   -2.1580   17.2192 O   0  0  0  0  0  0  0  0  0  0  0  0
   45.2809   -1.8331   14.7396 C   0  0  2  0  0  0  0  0  0  0  0  0
   45.8860   -2.9987   13.9000 C   0  0  0  0  0  0  0  0  0  0  0  0
   45.5779   -4.2281   14.4351 N   0  0  0  0  0  0  0  0  0  0  0  0
   44.3523   -1.1977   13.7337 C   0  0  0  0  0  0  0  0  0  0  0  0
   45.5733   -5.3686   13.4803 C   0  0  0  0  0  0  0  0  0  0  0  0
   44.8294    0.0634   13.2499 C   0  0  0  0  0  0  0  0  0  0  0  0
   44.5784    0.1008   11.7161 C   0  0  0  0  0  0  0  0  0  0  0  0
   44.1426   -5.8746   13.3465 C   0  0  0  0  0  0  0  0  0  0  0  0
   43.6012   -5.3365   11.9893 C   0  0  0  0  0  0  0  0  0  0  0  0
  1  2  1  0
  1  3  1  0
  2  4  1  0
  3  5  1  0
  4  6  1  0
  5  6  1  0
  5  7  1  0
  7  8  1  0
  7  9  1  1
  8 10  1  0
 10 11  1  6
 11 12  1  0
 10 13  1  0
 12 14  1  0
 13 15  1  0
 15 16  1  0
 14 17  1  0
 17 18  1  0
M  END
$$$$
36
     RDKit          3D

 18 20  0  0  0  0  0  0  0  0999 V2000
   44.5604    1.5799   18.8503 C   0  0  0  0  0  0  0  0  0  0  0  0
   43.2812    1.5169   18.3363 C   0  0  0  0  0  0  0  0  0  0  0  0
   45.6086    0.8095   18.2740 C   0  0  0  0  0  0  0  0  0  0  0  0
   43.1444    0.5989   17.1502 C   0  0  0  0  0  0  0  0  0  0  0  0
   45.1257   -0.0328   17.2768 C   0  0  0  0  0  0  0  0  0  0  0  0
   44.0119   -0.0888   16.7208 C   0  0  0  0  0  0  0  0  0  0  0  0
   46.3008   -0.8390   16.6090 C   0  0  2  0  0  0  0  0  0  0  0  0
   46.2064   -0.9705   15.2572 O   0  0  0  0  0  0  0  0  0  0  0  0
   46.4132   -2.1580   17.2192 O   0  0  0  0  0  0  0  0  0  0  0  0
   45.2809   -1.8331   14.7396 C   0  0  2  0  0  0  0  0  0  0  0  0
   45.8860   -2.9987   13.9000 C   0  0  1  0  0  0  0  0  0  0  0  0
   45.5779   -4.2281   14.4351 N   0  0  0  0  0  0  0  0  0  0  0  0
   44.3523   -1.1977   13.7337 C   0  0  0  0  0  0  0  0  0  0  0  0
   45.7315   -5.2755   13.7725 C   0  0  0  0  0  0  0  0  0  0  0  0
   45.3041   -2.9148   12.5465 C   0  0  2  0  0  0  0  0  0  0  0  0
   44.3270   -1.9335   12.4904 C   0  0  0  0  0  0  0  0  0  0  0  0
   44.5497   -5.2370   12.6591 C   0  0  0  0  0  0  0  0  0  0  0  0
   44.9189   -4.1871   11.8446 C   0  0  0  0  0  0  0  0  0  0  0  0
  1  2  1  0
  1  3  1  0
  2  4  1  0
  3  5  1  0
  4  6  1  0
  5  6  1  0
  5  7  1  0
  7  8  1  0
  7  9  1  1
 10  8  1  6
 10 11  1  0
 11 12  1  1
 10 13  1  0
 12 14  1  0
 11 15  1  0
 13 16  1  0
 15 16  1  1
 14 17  1  0
 15 18  1  0
 17 18  1  0
M  END
$$$$
37
     RDKit          3D

 18 19  0  0  0  0  0  0  0  0999 V2000
   43.5958    1.2915   17.9017 C   0  0  0  0  0  0  0  0  0  0  0  0
   44.7920    0.8446   17.7606 C   0  0  1  0  0  0  0  0  0  0  0  0
   42.5251    0.7827   17.1583 C   0  0  0  0  0  0  0  0  0  0  0  0
   42.7809   -0.0261   16.1589 C   0  0  0  0  0  0  0  0  0  0  0  0
   45.9380    1.2727   18.6343 C   0  0  0  0  0  0  0  0  0  0  0  0
   45.0624   -0.1370   16.7931 C   0  0  2  0  0  0  0  0  0  0  0  0
   44.0290   -0.5893   16.0632 C   0  0  2  0  0  0  0  0  0  0  0  0
   44.4743   -1.4363   15.0898 N   0  0  0  0  0  0  0  0  0  0  0  0
   46.5281   -0.7492   16.7895 C   0  0  0  0  0  0  0  0  0  0  0  0
   47.2406   -0.5619   17.8502 C   0  0  0  0  0  0  0  0  0  0  0  0
   47.1289    0.6092   18.6698 C   0  0  0  0  0  0  0  0  0  0  0  0
   44.4499   -1.1938   13.7065 C   0  0  0  0  0  0  0  0  0  0  0  0
   44.8359   -2.4672   12.8957 C   0  0  0  0  0  0  0  0  0  0  0  0
   44.7416   -3.7272   13.6120 C   0  0  0  0  0  0  0  0  0  0  0  0
   44.6616   -4.9299   12.7084 C   0  0  0  0  0  0  0  0  0  0  0  0
   44.2765   -0.1072   13.2361 O   0  0  0  0  0  0  0  0  0  0  0  0
   43.3425   -5.4925   12.5831 C   0  0  0  0  0  0  0  0  0  0  0  0
   43.2342   -6.8096   12.1470 C   0  0  0  0  0  0  0  0  0  0  0  0
  2  1  1  1
  1  3  1  0
  3  4  1  0
  2  5  1  0
  2  6  1  0
  4  7  1  0
  6  7  1  0
  7  8  1  6
  6  9  1  1
  9 10  1  0
  5 11  1  0
 10 11  1  0
  8 12  1  0
 12 13  1  0
 13 14  1  0
 14 15  1  0
 12 16  2  0
 15 17  1  0
 17 18  1  0
M  END
$$$$
38
     RDKit          3D

 18 20  0  0  0  0  0  0  0  0999 V2000
   45.5654   -5.9514   13.5958 C   0  0  0  0  0  0  0  0  0  0  0  0
   45.7909   -4.7104   13.7455 C   0  0  2  0  0  0  0  0  0  0  0  0
   44.6215   -6.3912   12.5557 C   0  0  0  0  0  0  0  0  0  0  0  0
   46.5263   -4.0636   14.7071 C   0  0  0  0  0  0  0  0  0  0  0  0
   43.9697   -5.4749   11.6732 C   0  0  0  0  0  0  0  0  0  0  0  0
   45.0865   -3.6104   12.7465 C   0  0  0  0  0  0  0  0  0  0  0  0
   44.1398   -4.1371   11.8651 C   0  0  0  0  0  0  0  0  0  0  0  0
   46.6456   -2.5974   14.7459 C   0  0  2  0  0  0  0  0  0  0  0  0
   47.2779   -1.9647   15.8433 C   0  0  0  0  0  0  0  0  0  0  0  0
   46.1673   -1.4205   16.8032 N   0  0  0  0  0  0  0  0  0  0  0  0
   46.0095   -1.7443   13.6842 C   0  0  0  0  0  0  0  0  0  0  0  0
   46.4411   -1.1375   18.0674 C   0  0  0  0  0  0  0  0  0  0  0  0
   45.3340   -2.2591   12.7161 C   0  0  0  0  0  0  0  0  0  0  0  0
   45.3367   -0.2897   16.2017 C   0  0  0  0  0  0  0  0  0  0  0  0
   45.3753   -0.5148   18.7531 C   0  0  0  0  0  0  0  0  0  0  0  0
   44.5913    0.2024   17.4318 C   0  0  0  0  0  0  0  0  0  0  0  0
   43.5152    1.0107   17.5453 C   0  0  0  0  0  0  0  0  0  0  0  0
   43.4158    1.9750   18.5738 C   0  0  0  0  0  0  0  0  0  0  0  0
  2  1  1  1
  1  3  1  0
  2  4  1  0
  3  5  1  0
  2  6  1  0
  5  7  1  0
  6  7  1  0
  4  8  1  0
  8  9  1  1
  9 10  1  0
  8 11  1  0
 10 12  1  0
  6 13  1  0
 11 13  1  0
 10 14  1  0
 12 15  1  0
 14 16  1  0
 15 16  1  0
 16 17  1  0
 17 18  1  0
M  END
$$$$
39
     RDKit          3D

 18 20  0  0  0  0  0  0  0  0999 V2000
   43.4362    0.9801   18.3618 C   0  0  0  0  0  0  0  0  0  0  0  0
   44.6781    0.5296   18.0170 C   0  0  0  0  0  0  0  0  0  0  0  0
   42.4576    1.1496   17.3923 N   0  0  0  0  0  0  0  0  0  0  0  0
   45.7694    0.4273   18.8906 C   0  0  0  0  0  0  0  0  0  0  0  0
   46.9819   -0.2560   18.5773 C   0  0  0  0  0  0  0  0  0  0  0  0
   44.9445    0.1178   16.6445 C   0  0  1  0  0  0  0  0  0  0  0  0
   45.9534   -0.4542   16.4182 C   0  0  0  0  0  0  0  0  0  0  0  0
   47.0338   -0.7230   17.3104 C   0  0  0  0  0  0  0  0  0  0  0  0
   46.2493   -1.0336   14.8981 C   0  0  0  0  0  0  0  0  0  0  0  0
   43.7016    0.1414   15.9032 N   0  0  0  0  0  0  0  0  0  0  0  0
   42.5856    0.5601   16.2857 C   0  0  0  0  0  0  0  0  0  0  0  0
   46.2940   -2.4094   14.7680 N   0  0  0  0  0  0  0  0  0  0  0  0
   45.6435   -3.0425   13.9268 N   0  0  0  0  0  0  0  0  0  0  0  0
   44.5857   -2.5359   13.2435 C   0  0  0  0  0  0  0  0  0  0  0  0
   44.0707   -3.3807   12.1402 C   0  0  0  0  0  0  0  0  0  0  0  0
   44.6311   -4.7756   12.1557 C   0  0  0  0  0  0  0  0  0  0  0  0
   46.0336   -4.4684   14.0014 C   0  0  0  0  0  0  0  0  0  0  0  0
   45.5518   -5.2407   12.9496 C   0  0  0  0  0  0  0  0  0  0  0  0
  1  2  1  0
  1  3  1  0
  2  4  1  0
  4  5  1  0
  2  6  1  0
  6  7  1  0
  5  8  1  0
  7  8  1  0
  7  9  1  0
  6 10  1  1
  3 11  1  0
 10 11  1  0
  9 12  1  0
 12 13  1  0
 13 14  1  0
 14 15  1  0
 15 16  1  0
 13 17  1  0
 16 18  1  0
 17 18  1  0
M  END
$$$$
4
     RDKit          3D

 14 16  0  0  0  0  0  0  0  0999 V2000
   46.9756   -3.1603   14.3610 C   0  0  0  0  0  0  0  0  0  0  0  0
   46.1787   -2.2103   14.9665 N   0  0  0  0  0  0  0  0  0  0  0  0
   46.1844   -4.1274   13.5269 C   0  0  1  0  0  0  0  0  0  0  0  0
   46.5952   -1.3793   15.9428 C   0  0  0  0  0  0  0  0  0  0  0  0
   45.4629   -1.4718   13.8169 C   0  0  1  0  0  0  0  0  0  0  0  0
   44.7197   -2.4589   12.9185 C   0  0  0  0  0  0  0  0  0  0  0  0
   45.1095   -4.7646   14.2939 N   0  0  0  0  0  0  0  0  0  0  0  0
   46.9743   -1.6870   16.9612 O   0  0  0  0  0  0  0  0  0  0  0  0
   44.2088   -5.2768   13.2167 C   0  0  0  0  0  0  0  0  0  0  0  0
   46.4902    0.0555   15.3784 C   0  0  0  0  0  0  0  0  0  0  0  0
   44.6941   -5.0293   11.9895 C   0  0  0  0  0  0  0  0  0  0  0  0
   45.2345   -0.0906   14.4673 C   0  0  2  0  0  0  0  0  0  0  0  0
   45.5161   -3.6411   12.3260 C   0  0  2  0  0  0  0  0  0  0  0  0
   43.8592   -0.4250   15.0335 O   0  0  0  0  0  0  0  0  0  0  0  0
  1  2  1  0
  3  1  1  1
  2  4  1  0
  2  5  1  0
  5  6  1  1
  3  7  1  0
  4  8  2  0
  7  9  1  0
  4 10  1  0
  9 11  1  0
  5 12  1  0
 10 12  1  0
  3 13  1  0
 13  6  1  1
 11 13  1  0
 12 14  1  1
M  END
$$$$
40
     RDKit          3D

 18 19  0  0  0  0  0  0  0  0999 V2000
   42.9616    1.6427   18.4622 N   0  0  0  0  0  0  0  0  0  0  0  0
   43.6592    0.8942   17.7890 C   0  0  2  0  0  0  0  0  0  0  0  0
   43.3844    0.3171   16.5622 N   0  0  0  0  0  0  0  0  0  0  0  0
   44.3031   -0.4752   16.0066 C   0  0  1  0  0  0  0  0  0  0  0  0
   44.9630    0.5003   18.4206 C   0  0  0  0  0  0  0  0  0  0  0  0
   45.8899   -0.2485   17.7868 C   0  0  0  0  0  0  0  0  0  0  0  0
   44.0940   -0.9149   14.6783 N   0  0  0  0  0  0  0  0  0  0  0  0
   44.9965   -1.8706   14.1179 C   0  0  2  0  0  0  0  0  0  0  0  0
   45.5799   -0.7650   16.5850 C   0  0  1  0  0  0  0  0  0  0  0  0
   46.2611   -2.1528   14.7946 C   0  0  0  0  0  0  0  0  0  0  0  0
   46.5142   -1.6480   16.0765 C   0  0  0  0  0  0  0  0  0  0  0  0
   44.8921   -2.3551   12.7261 C   0  0  1  0  0  0  0  0  0  0  0  0
   44.2242   -3.6094   12.6644 C   0  0  0  0  0  0  0  0  0  0  0  0
   44.0178   -1.4070   11.9505 C   0  0  0  0  0  0  0  0  0  0  0  0
   45.1287   -4.8881   12.9089 C   0  0  0  0  0  0  0  0  0  0  0  0
   44.5407   -6.2074   12.5493 C   0  0  0  0  0  0  0  0  0  0  0  0
   44.1313    0.0046   12.3612 C   0  0  0  0  0  0  0  0  0  0  0  0
   43.2338   -6.2984   12.5516 C   0  0  0  0  0  0  0  0  0  0  0  0
  2  1  1  1
  2  3  1  0
  4  3  1  6
  2  5  1  0
  5  6  1  0
  4  7  1  0
  7  8  1  0
  4  9  1  0
  9  6  1  1
  8 10  1  6
  9 11  1  0
 10 11  1  0
  8 12  1  0
 12 13  1  1
 12 14  1  0
 13 15  1  0
 15 16  1  0
 14 17  1  0
 16 18  1  0
M  END
$$$$
41
     RDKit          3D

 18 19  0  0  0  0  0  0  0  0999 V2000
   45.5654   -5.9514   13.5958 C   0  0  0  0  0  0  0  0  0  0  0  0
   45.7909   -4.7104   13.7455 C   0  0  2  0  0  0  0  0  0  0  0  0
   44.6215   -6.3912   12.5557 C   0  0  0  0  0  0  0  0  0  0  0  0
   46.5263   -4.0636   14.7071 C   0  0  0  0  0  0  0  0  0  0  0  0
   43.9697   -5.4749   11.6732 C   0  0  0  0  0  0  0  0  0  0  0  0
   45.0865   -3.6104   12.7465 C   0  0  1  0  0  0  0  0  0  0  0  0
   44.1398   -4.1371   11.8651 C   0  0  0  0  0  0  0  0  0  0  0  0
   46.6456   -2.5974   14.7459 C   0  0  2  0  0  0  0  0  0  0  0  0
   47.2779   -1.9647   15.8433 C   0  0  0  0  0  0  0  0  0  0  0  0
   46.1673   -1.4205   16.8032 N   0  0  0  0  0  0  0  0  0  0  0  0
   45.4381   -2.2727   13.0939 C   0  0  2  0  0  0  0  0  0  0  0  0
   44.3091   -1.5701   13.4571 C   0  0  0  0  0  0  0  0  0  0  0  0
   44.3360   -0.1804   12.8278 C   0  0  0  0  0  0  0  0  0  0  0  0
   44.2195   -0.2646   11.4337 C   0  0  0  0  0  0  0  0  0  0  0  0
   46.2979   -0.3703   17.5394 C   0  0  0  0  0  0  0  0  0  0  0  0
   45.0500    0.0561   18.3018 C   0  0  0  0  0  0  0  0  0  0  0  0
   44.2573    1.2141   17.8388 C   0  0  0  0  0  0  0  0  0  0  0  0
   42.8816    1.3325   18.1721 N   0  0  0  0  0  0  0  0  0  0  0  0
  2  1  1  1
  1  3  1  0
  2  4  1  0
  3  5  1  0
  2  6  1  0
  5  7  1  0
  6  7  1  1
  4  8  1  0
  8  9  1  1
  9 10  1  0
  6 11  1  0
  8 11  1  0
 11 12  1  1
 12 13  1  0
 13 14  1  0
 10 15  1  0
 15 16  1  0
 16 17  1  0
 17 18  1  0
M  END
$$$$
42
     RDKit          3D

 18 20  0  0  0  0  0  0  0  0999 V2000
   45.4104   -0.7737   18.2956 C   0  0  0  0  0  0  0  0  0  0  0  0
   45.7913   -1.1598   17.1383 C   0  0  1  0  0  0  0  0  0  0  0  0
   46.8285   -1.9491   16.8934 O   0  0  0  0  0  0  0  0  0  0  0  0
   44.3802    0.2714   18.4250 C   0  0  0  0  0  0  0  0  0  0  0  0
   44.9434   -0.8359   15.8683 C   0  0  1  0  0  0  0  0  0  0  0  0
   43.9541    0.0926   16.0371 C   0  0  0  0  0  0  0  0  0  0  0  0
   45.3071   -1.4225   14.6028 C   0  0  1  0  0  0  0  0  0  0  0  0
   43.6449    0.6681   17.3029 C   0  0  0  0  0  0  0  0  0  0  0  0
   45.7020   -2.7322   14.5833 N   0  0  0  0  0  0  0  0  0  0  0  0
   45.1496   -0.7987   13.4136 C   0  0  0  0  0  0  0  0  0  0  0  0
   45.8845   -3.4529   13.4695 C   0  0  1  0  0  0  0  0  0  0  0  0
   42.4196    1.7875   17.5318 Cl  0  0  0  0  0  0  0  0  0  0  0  0
   45.0641   -1.4857   12.1851 C   0  0  0  0  0  0  0  0  0  0  0  0
   45.9685   -4.8574   13.5066 C   0  0  0  0  0  0  0  0  0  0  0  0
   44.8462   -5.5505   12.7007 C   0  0  0  0  0  0  0  0  0  0  0  0
   43.9079   -4.8129   12.1789 C   0  0  0  0  0  0  0  0  0  0  0  0
   43.9717   -3.5077   11.9899 C   0  0  0  0  0  0  0  0  0  0  0  0
   45.0573   -2.7819   12.4316 C   0  0  2  0  0  0  0  0  0  0  0  0
  1  2  1  0
  2  3  1  1
  1  4  1  0
  2  5  1  0
  5  6  1  6
  5  7  1  0
  4  8  1  0
  6  8  1  0
  7  9  1  0
  7 10  1  6
  9 11  1  0
  8 12  1  0
 10 13  1  0
 11 14  1  1
 14 15  1  0
 15 16  1  0
 16 17  1  0
 11 18  1  0
 18 13  1  1
 17 18  1  0
M  END
$$$$
43
     RDKit          3D

 18 19  0  0  0  0  0  0  0  0999 V2000
   42.9062    0.9397   17.6172 C   0  0  0  0  0  0  0  0  0  0  0  0
   43.5291    0.1454   16.8472 C   0  0  0  0  0  0  0  0  0  0  0  0
   44.8988    0.0753   17.1283 C   0  0  0  0  0  0  0  0  0  0  0  0
   43.4017    1.7367   18.6536 C   0  0  0  0  0  0  0  0  0  0  0  0
   44.7162    1.6417   18.9546 C   0  0  0  0  0  0  0  0  0  0  0  0
   45.5017    0.7802   18.1567 C   0  0  0  0  0  0  0  0  0  0  0  0
   45.8329   -0.8243   16.3817 C   0  0  0  0  0  0  0  0  0  0  0  0
   46.6036   -1.6734   17.0094 O   0  0  0  0  0  0  0  0  0  0  0  0
   46.0658   -0.6455   15.0518 N   0  0  0  0  0  0  0  0  0  0  0  0
   46.6973   -1.5659   14.2201 C   0  0  0  0  0  0  0  0  0  0  0  0
   45.3027    0.3396   14.2970 C   0  0  0  0  0  0  0  0  0  0  0  0
   44.8876   -0.1905   12.9303 C   0  0  0  0  0  0  0  0  0  0  0  0
   45.7076   -1.5688   12.9467 C   0  0  2  0  0  0  0  0  0  0  0  0
   44.8933   -2.7313   12.6838 C   0  0  0  0  0  0  0  0  0  0  0  0
   45.0851   -3.5874   11.7084 C   0  0  0  0  0  0  0  0  0  0  0  0
   44.9476   -5.0921   12.1864 C   0  0  0  0  0  0  0  0  0  0  0  0
   43.5948   -5.4846   12.4467 C   0  0  0  0  0  0  0  0  0  0  0  0
   43.3474   -6.7937   12.7545 N   0  0  0  0  0  0  0  0  0  0  0  0
  1  2  1  0
  2  3  1  0
  1  4  1  0
  4  5  1  0
  3  6  1  0
  5  6  1  0
  3  7  1  0
  7  8  2  0
  7  9  1  0
  9 10  1  0
  9 11  1  0
 11 12  1  0
 10 13  1  0
 12 13  1  0
 13 14  1  1
 14 15  1  0
 15 16  1  0
 16 17  1  0
 17 18  1  0
M  END
$$$$
44
     RDKit          3D

 19 21  0  0  0  0  0  0  0  0999 V2000
   44.5604    1.5799   18.8503 C   0  0  0  0  0  0  0  0  0  0  0  0
   43.2812    1.5169   18.3363 C   0  0  0  0  0  0  0  0  0  0  0  0
   45.6086    0.8095   18.2740 C   0  0  0  0  0  0  0  0  0  0  0  0
   43.1444    0.5989   17.1502 C   0  0  0  0  0  0  0  0  0  0  0  0
   45.1257   -0.0328   17.2768 C   0  0  0  0  0  0  0  0  0  0  0  0
   44.0119   -0.0888   16.7208 C   0  0  0  0  0  0  0  0  0  0  0  0
   46.3008   -0.8390   16.6090 C   0  0  2  0  0  0  0  0  0  0  0  0
   46.2064   -0.9705   15.2572 O   0  0  0  0  0  0  0  0  0  0  0  0
   46.4132   -2.1580   17.2192 O   0  0  0  0  0  0  0  0  0  0  0  0
   45.2809   -1.8331   14.7396 C   0  0  2  0  0  0  0  0  0  0  0  0
   45.8860   -2.9987   13.9000 C   0  0  1  0  0  0  0  0  0  0  0  0
   45.5779   -4.2281   14.4351 N   0  0  0  0  0  0  0  0  0  0  0  0
   44.3523   -1.1977   13.7337 C   0  0  0  0  0  0  0  0  0  0  0  0
   45.7315   -5.2755   13.7725 C   0  0  0  0  0  0  0  0  0  0  0  0
   45.3041   -2.9148   12.5465 C   0  0  2  0  0  0  0  0  0  0  0  0
   44.3270   -1.9335   12.4904 C   0  0  0  0  0  0  0  0  0  0  0  0
   44.5497   -5.2370   12.6591 C   0  0  0  0  0  0  0  0  0  0  0  0
   44.0097   -6.4784   12.2320 C   0  0  0  0  0  0  0  0  0  0  0  0
   44.6290   -4.1216   11.8704 C   0  0  0  0  0  0  0  0  0  0  0  0
  1  2  1  0
  1  3  1  0
  2  4  1  0
  3  5  1  0
  4  6  1  0
  5  6  1  0
  5  7  1  0
  7  8  1  0
  7  9  1  1
 10  8  1  6
 10 11  1  0
 11 12  1  1
 10 13  1  0
 12 14  1  0
 11 15  1  0
 13 16  1  0
 15 16  1  1
 14 17  1  0
 17 18  1  0
 15 19  1  0
 17 19  2  0
M  END
$$$$
45
     RDKit          3D

 19 21  0  0  0  0  0  0  0  0999 V2000
   43.4362    0.9801   18.3618 C   0  0  0  0  0  0  0  0  0  0  0  0
   44.6781    0.5296   18.0170 C   0  0  0  0  0  0  0  0  0  0  0  0
   42.4576    1.1496   17.3923 N   0  0  0  0  0  0  0  0  0  0  0  0
   45.7694    0.4273   18.8906 C   0  0  0  0  0  0  0  0  0  0  0  0
   46.9819   -0.2560   18.5773 C   0  0  0  0  0  0  0  0  0  0  0  0
   44.9445    0.1178   16.6445 C   0  0  2  0  0  0  0  0  0  0  0  0
   43.9213    0.2611   15.7563 C   0  0  1  0  0  0  0  0  0  0  0  0
   47.1172   -0.6541   17.2707 C   0  0  0  0  0  0  0  0  0  0  0  0
   44.2161   -0.3491   14.4885 C   0  0  0  0  0  0  0  0  0  0  0  0
   41.2430    1.6036   17.7233 N   0  0  0  0  0  0  0  0  0  0  0  0
   46.1372   -0.5581   16.4326 C   0  0  2  0  0  0  0  0  0  0  0  0
   42.7346    0.7568   16.1146 C   0  0  0  0  0  0  0  0  0  0  0  0
   46.5348   -1.1106   14.9989 C   0  0  0  0  0  0  0  0  0  0  0  0
   45.3699   -0.9477   14.1213 C   0  0  1  0  0  0  0  0  0  0  0  0
   45.7056   -1.7636   12.8940 C   0  0  0  0  0  0  0  0  0  0  0  0
   44.8382   -2.9124   12.7644 C   0  0  0  0  0  0  0  0  0  0  0  0
   45.4470   -4.1928   13.2714 C   0  0  0  0  0  0  0  0  0  0  0  0
   44.5881   -5.2359   13.6476 N   0  0  0  0  0  0  0  0  0  0  0  0
   43.5472   -5.4236   12.7106 C   0  0  0  0  0  0  0  0  0  0  0  0
  1  2  1  0
  1  3  1  0
  2  4  1  0
  4  5  1  0
  6  2  1  1
  6  7  1  0
  5  8  1  0
  7  9  1  1
  3 10  1  0
  6 11  1  0
 11  8  1  6
  3 12  1  0
  7 12  1  0
 11 13  1  0
  9 14  1  0
 13 14  1  0
 14 15  1  1
 15 16  1  0
 16 17  1  0
 17 18  1  0
 18 19  1  0
M  END
$$$$
46
     RDKit          3D

 19 21  0  0  0  0  0  0  0  0999 V2000
   42.6956    1.1982   17.6432 N   0  0  0  0  0  0  0  0  0  0  0  0
   43.5899    0.4685   17.1413 C   0  0  1  0  0  0  0  0  0  0  0  0
   44.7723    0.2992   17.9868 C   0  0  1  0  0  0  0  0  0  0  0  0
   44.8758    0.7980   19.2349 C   0  0  0  0  0  0  0  0  0  0  0  0
   43.4696   -0.2101   15.8891 N   0  0  0  0  0  0  0  0  0  0  0  0
   45.8995   -0.5512   17.6411 C   0  0  0  0  0  0  0  0  0  0  0  0
   43.8715    1.7200   19.5787 C   0  0  0  0  0  0  0  0  0  0  0  0
   45.7225   -1.1623   16.2300 C   0  0  1  0  0  0  0  0  0  0  0  0
   44.5536   -0.8993   15.4889 C   0  0  0  0  0  0  0  0  0  0  0  0
   46.8182   -1.7551   15.5244 C   0  0  0  0  0  0  0  0  0  0  0  0
   44.5049   -1.4947   14.0708 C   0  0  0  0  0  0  0  0  0  0  0  0
   46.7171   -2.3620   14.3282 C   0  0  0  0  0  0  0  0  0  0  0  0
   42.7171    1.9315   18.7567 C   0  0  0  0  0  0  0  0  0  0  0  0
   45.5583   -2.3048   13.6641 C   0  0  2  0  0  0  0  0  0  0  0  0
   45.5911   -2.6922   12.1510 C   0  0  0  0  0  0  0  0  0  0  0  0
   44.8546   -4.0441   12.1635 C   0  0  0  0  0  0  0  0  0  0  0  0
   44.7393   -4.8704   13.2469 C   0  0  0  0  0  0  0  0  0  0  0  0
   44.3751   -6.2405   12.8690 N   0  0  0  0  0  0  0  0  0  0  0  0
   44.0505   -6.4961   11.6591 C   0  0  0  0  0  0  0  0  0  0  0  0
  2  1  1  1
  2  3  1  0
  3  4  1  1
  2  5  1  0
  3  6  1  0
  4  7  1  0
  8  6  1  6
  5  9  1  0
  8  9  1  0
  8 10  1  0
  9 11  1  0
 10 12  1  0
  1 13  1  0
  7 13  1  0
 11 14  1  0
 12 14  1  0
 14 15  1  6
 15 16  1  0
 16 17  1  0
 17 18  1  0
 18 19  1  0
M  END
$$$$
47
     RDKit          3D

 19 21  0  0  0  0  0  0  0  0999 V2000
   46.9756   -3.1603   14.3610 C   0  0  0  0  0  0  0  0  0  0  0  0
   46.1787   -2.2103   14.9665 N   0  0  0  0  0  0  0  0  0  0  0  0
   46.1844   -4.1274   13.5269 C   0  0  1  0  0  0  0  0  0  0  0  0
   46.5952   -1.3793   15.9428 C   0  0  0  0  0  0  0  0  0  0  0  0
   45.4629   -1.4718   13.8169 C   0  0  2  0  0  0  0  0  0  0  0  0
   44.7197   -2.4589   12.9185 C   0  0  0  0  0  0  0  0  0  0  0  0
   45.1095   -4.7646   14.2939 N   0  0  0  0  0  0  0  0  0  0  0  0
   45.6365   -0.2381   15.9968 C   0  0  1  0  0  0  0  0  0  0  0  0
   45.5302   -3.4585   12.3437 C   0  0  1  0  0  0  0  0  0  0  0  0
   46.4215   -0.6067   13.0574 C   0  0  0  0  0  0  0  0  0  0  0  0
   44.6962   -0.4750   14.8438 C   0  0  0  0  0  0  0  0  0  0  0  0
   45.3054    0.4357   17.2291 C   0  0  0  0  0  0  0  0  0  0  0  0
   43.9554    0.8015   17.5628 C   0  0  0  0  0  0  0  0  0  0  0  0
   43.7278    1.7028   18.5390 C   0  0  0  0  0  0  0  0  0  0  0  0
   46.5300   -2.7882   11.3709 C   0  0  0  0  0  0  0  0  0  0  0  0
   47.0981   -1.5511   11.9473 C   0  0  0  0  0  0  0  0  0  0  0  0
   44.5080   -5.9152   13.4945 C   0  0  0  0  0  0  0  0  0  0  0  0
   45.2227   -6.8792   13.0575 O   0  0  0  0  0  0  0  0  0  0  0  0
   43.1535   -5.7901   13.0587 C   0  0  0  0  0  0  0  0  0  0  0  0
  1  2  1  0
  1  3  1  0
  2  4  1  0
  2  5  1  0
  5  6  1  0
  3  7  1  1
  4  8  1  0
  3  9  1  0
  6  9  1  0
  5 10  1  6
  5 11  1  0
  8 11  1  0
  8 12  1  1
 12 13  1  0
 13 14  1  0
  9 15  1  6
 10 16  1  0
 15 16  1  0
  7 17  1  0
 17 18  2  0
 17 19  1  0
M  END
$$$$
48
     RDKit          3D

 19 22  0  0  0  0  0  0  0  0999 V2000
   42.9080    1.3228   18.0138 N   0  0  0  0  0  0  0  0  0  0  0  0
   43.9832    1.7227   18.3926 C   0  0  0  0  0  0  0  0  0  0  0  0
   42.8695    0.3948   17.0033 C   0  0  0  0  0  0  0  0  0  0  0  0
   44.2236    0.0273   16.6850 C   0  0  1  0  0  0  0  0  0  0  0  0
   45.0955    0.9716   17.8637 C   0  0  0  0  0  0  0  0  0  0  0  0
   46.4468    0.8102   17.9674 C   0  0  0  0  0  0  0  0  0  0  0  0
   45.0317   -0.7375   15.9757 C   0  0  1  0  0  0  0  0  0  0  0  0
   46.3447   -1.0186   16.1627 C   0  0  2  0  0  0  0  0  0  0  0  0
   46.9785   -2.0105   15.3495 C   0  0  0  0  0  0  0  0  0  0  0  0
   44.1733   -1.4584   14.8135 C   0  0  0  0  0  0  0  0  0  0  0  0
   46.2879   -2.5680   14.2346 C   0  0  2  0  0  0  0  0  0  0  0  0
   47.0205   -0.3387   17.3611 C   0  0  0  0  0  0  0  0  0  0  0  0
   44.9546   -2.3011   13.9930 C   0  0  1  0  0  0  0  0  0  0  0  0
   47.0333   -3.5596   13.3631 C   0  0  0  0  0  0  0  0  0  0  0  0
   46.0948   -4.4156   12.5613 C   0  0  0  0  0  0  0  0  0  0  0  0
   44.1792   -2.9777   12.9698 C   0  0  0  0  0  0  0  0  0  0  0  0
   44.7623   -4.1665   12.2303 C   0  0  2  0  0  0  0  0  0  0  0  0
   44.0173   -4.9246   11.4186 C   0  0  0  0  0  0  0  0  0  0  0  0
   43.4301   -6.1973   11.9655 C   0  0  0  0  0  0  0  0  0  0  0  0
  1  2  1  0
  1  3  1  0
  4  3  1  1
  2  5  1  0
  4  5  1  0
  5  6  1  0
  4  7  1  0
  7  8  1  0
  8  9  1  1
  7 10  1  1
 11  9  1  1
  6 12  1  0
  8 12  1  0
 13 10  1  1
 11 13  1  0
 11 14  1  0
 14 15  1  0
 13 16  1  0
 15 17  1  0
 16 17  1  0
 17 18  1  1
 18 19  1  0
M  END
$$$$
49
     RDKit          3D

 19 21  0  0  0  0  0  0  0  0999 V2000
   42.6956    1.1982   17.6432 N   0  0  0  0  0  0  0  0  0  0  0  0
   43.5899    0.4685   17.1413 C   0  0  1  0  0  0  0  0  0  0  0  0
   44.7723    0.2992   17.9868 C   0  0  1  0  0  0  0  0  0  0  0  0
   44.8758    0.7980   19.2349 C   0  0  0  0  0  0  0  0  0  0  0  0
   43.4696   -0.2101   15.8891 N   0  0  0  0  0  0  0  0  0  0  0  0
   45.8995   -0.5512   17.6411 C   0  0  0  0  0  0  0  0  0  0  0  0
   43.8715    1.7200   19.5787 C   0  0  0  0  0  0  0  0  0  0  0  0
   45.7225   -1.1623   16.2300 C   0  0  1  0  0  0  0  0  0  0  0  0
   44.5536   -0.8993   15.4889 C   0  0  0  0  0  0  0  0  0  0  0  0
   46.8182   -1.7551   15.5244 C   0  0  0  0  0  0  0  0  0  0  0  0
   44.5049   -1.4947   14.0708 C   0  0  0  0  0  0  0  0  0  0  0  0
   46.7171   -2.3620   14.3282 C   0  0  0  0  0  0  0  0  0  0  0  0
   42.7171    1.9315   18.7567 C   0  0  0  0  0  0  0  0  0  0  0  0
   45.5522   -2.1969   13.5832 C   0  0  0  0  0  0  0  0  0  0  0  0
   45.5239   -2.7935   12.1912 C   0  0  0  0  0  0  0  0  0  0  0  0
   44.3386   -3.4761   11.9795 C   0  0  0  0  0  0  0  0  0  0  0  0
   44.2110   -4.7281   12.6709 C   0  0  0  0  0  0  0  0  0  0  0  0
   44.0895   -5.9464   11.9988 C   0  0  0  0  0  0  0  0  0  0  0  0
   43.1368   -6.8453   12.3631 C   0  0  0  0  0  0  0  0  0  0  0  0
  2  1  1  1
  2  3  1  0
  3  4  1  1
  2  5  1  0
  3  6  1  0
  4  7  1  0
  8  6  1  6
  5  9  1  0
  8  9  1  0
  8 10  1  0
  9 11  1  0
 10 12  1  0
  1 13  1  0
  7 13  1  0
 11 14  1  0
 12 14  1  0
 14 15  1  0
 15 16  1  0
 16 17  1  0
 17 18  1  0
 18 19  1  0
M  END
$$$$
5
     RDKit          3D

 14 15  0  0  0  0  0  0  0  0999 V2000
   43.2352    1.2716   18.0171 C   0  0  0  0  0  0  0  0  0  0  0  0
   44.5574    1.3256   18.1198 C   0  0  0  0  0  0  0  0  0  0  0  0
   42.5750    0.5561   16.9984 C   0  0  0  0  0  0  0  0  0  0  0  0
   43.2515   -0.2197   16.2056 C   0  0  0  0  0  0  0  0  0  0  0  0
   45.3366    0.4177   17.3221 C   0  0  0  0  0  0  0  0  0  0  0  0
   44.6359   -0.3189   16.3516 C   0  0  0  0  0  0  0  0  0  0  0  0
   45.4561   -1.1310   15.4922 C   0  0  0  0  0  0  0  0  0  0  0  0
   45.0102   -1.2231   14.0603 C   0  0  0  0  0  0  0  0  0  0  0  0
   46.5870   -1.7772   15.8544 C   0  0  1  0  0  0  0  0  0  0  0  0
   47.0080   -1.7971   17.1618 O   0  0  0  0  0  0  0  0  0  0  0  0
   47.2199   -2.6793   14.8966 C   0  0  0  0  0  0  0  0  0  0  0  0
   45.6896   -1.9917   13.1465 C   0  0  2  0  0  0  0  0  0  0  0  0
   46.8436   -2.7216   13.5388 C   0  0  0  0  0  0  0  0  0  0  0  0
   45.2665   -2.0367   11.5411 Cl  0  0  0  0  0  0  0  0  0  0  0  0
  1  2  1  0
  1  3  1  0
  3  4  1  0
  2  5  1  0
  4  6  1  0
  5  6  1  0
  6  7  1  0
  7  8  1  0
  7  9  1  0
  9 10  1  1
  9 11  1  0
  8 12  1  0
 11 13  1  0
 12 13  1  0
 12 14  1  6
M  END
$$$$
50
     RDKit          3D

 19 19  0  0  0  0  0  0  0  0999 V2000
   42.5168    1.3863   17.9318 N   0  0  0  0  0  0  0  0  0  0  0  0
   43.4269    0.6962   17.3707 C   0  0  0  0  0  0  0  0  0  0  0  0
   43.3570    0.1048   16.1824 N   0  0  0  0  0  0  0  0  0  0  0  0
   44.6883    0.5682   18.2041 C   0  0  0  0  0  0  0  0  0  0  0  0
   44.4187   -0.5363   15.6646 C   0  0  0  0  0  0  0  0  0  0  0  0
   44.3680   -1.1549   14.4177 C   0  0  0  0  0  0  0  0  0  0  0  0
   45.1616   -0.8110   13.4151 C   0  0  0  0  0  0  0  0  0  0  0  0
   45.8001   -0.0913   17.6154 C   0  0  2  0  0  0  0  0  0  0  0  0
   45.6651   -0.6497   16.4000 N   0  0  0  0  0  0  0  0  0  0  0  0
   46.9053   -0.1525   18.4915 C   0  0  0  0  0  0  0  0  0  0  0  0
   45.0998   -1.6404   12.1767 C   0  0  1  0  0  0  0  0  0  0  0  0
   44.6269   -2.9701   12.3992 C   0  0  0  0  0  0  0  0  0  0  0  0
   44.0934   -0.7909   11.3372 C   0  0  0  0  0  0  0  0  0  0  0  0
   45.3756   -4.0715   12.7428 C   0  0  0  0  0  0  0  0  0  0  0  0
   48.0196   -0.8879   18.2128 O   0  0  0  0  0  0  0  0  0  0  0  0
   44.8373   -5.4335   13.0812 C   0  0  0  0  0  0  0  0  0  0  0  0
   46.9096    0.5176   19.6328 O   0  0  0  0  0  0  0  0  0  0  0  0
   43.7137   -5.8338   12.2226 C   0  0  0  0  0  0  0  0  0  0  0  0
   42.6336   -6.2497   12.5172 C   0  0  0  0  0  0  0  0  0  0  0  0
  1  2  1  0
  2  3  1  0
  2  4  1  0
  3  5  1  0
  5  6  1  0
  6  7  1  0
  4  8  1  0
  5  9  1  0
  8  9  1  0
  8 10  1  1
  7 11  1  0
 11 12  1  0
 11 13  1  6
 12 14  2  3
 10 15  1  0
 14 16  1  0
 10 17  2  0
 16 18  1  0
 18 19  2  0
M  END
$$$$
51
     RDKit          3D

 19 20  0  0  0  0  0  0  0  0999 V2000
   46.9756   -3.1603   14.3610 C   0  0  0  0  0  0  0  0  0  0  0  0
   46.1787   -2.2103   14.9665 N   0  0  0  0  0  0  0  0  0  0  0  0
   46.2202   -3.7861   13.2667 C   0  0  1  0  0  0  0  0  0  0  0  0
   46.5748   -1.4953   16.1042 C   0  0  0  0  0  0  0  0  0  0  0  0
   45.4300   -4.8795   13.7387 C   0  0  0  0  0  0  0  0  0  0  0  0
   45.7467   -2.9781   12.1539 C   0  0  0  0  0  0  0  0  0  0  0  0
   44.6761   -1.9823   12.6646 C   0  0  1  0  0  0  0  0  0  0  0  0
   45.5259   -1.1128   13.9622 C   0  0  1  0  0  0  0  0  0  0  0  0
   45.0896   -0.0025   14.4022 C   0  0  0  0  0  0  0  0  0  0  0  0
   44.2528   -0.9587   11.6982 C   0  0  0  0  0  0  0  0  0  0  0  0
   45.0284   -5.9484   12.8192 C   0  0  0  0  0  0  0  0  0  0  0  0
   43.9608   -5.7810   12.0199 C   0  0  0  0  0  0  0  0  0  0  0  0
   44.3799   -0.2190   15.7748 C   0  0  0  0  0  0  0  0  0  0  0  0
   45.4874   -0.7101   16.8094 C   0  0  0  0  0  0  0  0  0  0  0  0
   43.4262   -6.9839   11.2364 C   0  0  0  0  0  0  0  0  0  0  0  0
   43.2465    0.1000   16.2314 O   0  0  0  0  0  0  0  0  0  0  0  0
   45.3644   -0.3853   18.1536 C   0  0  0  0  0  0  0  0  0  0  0  0
   45.0515    0.8208   18.6588 C   0  0  0  0  0  0  0  0  0  0  0  0
   45.6854   -1.2680   18.8439 O   0  0  0  0  0  0  0  0  0  0  0  0
  1  2  1  0
  1  3  1  0
  2  4  1  0
  3  5  1  1
  3  6  1  0
  6  7  1  0
  2  8  1  0
  7  8  1  0
  8  9  1  1
  7 10  1  6
  5 11  1  0
 11 12  2  3
  9 13  1  0
  4 14  1  0
 13 14  1  0
 12 15  1  0
 13 16  2  0
 14 17  1  0
 17 18  1  0
 17 19  2  0
M  END
$$$$
52
     RDKit          3D

 19 20  0  0  0  0  0  0  0  0999 V2000
   43.4362    0.9801   18.3618 C   0  0  0  0  0  0  0  0  0  0  0  0
   44.6781    0.5296   18.0170 C   0  0  0  0  0  0  0  0  0  0  0  0
   42.4576    1.1496   17.3923 N   0  0  0  0  0  0  0  0  0  0  0  0
   45.7694    0.4273   18.8906 C   0  0  0  0  0  0  0  0  0  0  0  0
   46.9819   -0.2560   18.5773 C   0  0  0  0  0  0  0  0  0  0  0  0
   44.9445    0.1178   16.6445 C   0  0  1  0  0  0  0  0  0  0  0  0
   45.9534   -0.4542   16.4182 C   0  0  0  0  0  0  0  0  0  0  0  0
   47.0338   -0.7230   17.3104 C   0  0  0  0  0  0  0  0  0  0  0  0
   46.2493   -1.0336   14.8981 C   0  0  0  0  0  0  0  0  0  0  0  0
   43.7016    0.1414   15.9032 N   0  0  0  0  0  0  0  0  0  0  0  0
   42.5856    0.5601   16.2857 C   0  0  0  0  0  0  0  0  0  0  0  0
   46.2940   -2.4094   14.7680 C   0  0  0  0  0  0  0  0  0  0  0  0
   45.1263   -3.0467   14.1033 C   0  0  0  0  0  0  0  0  0  0  0  0
   45.2857   -4.4493   13.7025 C   0  0  0  0  0  0  0  0  0  0  0  0
   44.2288   -2.2732   13.2764 C   0  0  0  0  0  0  0  0  0  0  0  0
   44.9980   -1.8087   11.9926 C   0  0  0  0  0  0  0  0  0  0  0  0
   44.3357   -0.6207   11.4094 C   0  0  0  0  0  0  0  0  0  0  0  0
   44.7316   -4.9398   12.5140 C   0  0  0  0  0  0  0  0  0  0  0  0
   43.4591   -5.6732   12.5765 C   0  0  0  0  0  0  0  0  0  0  0  0
  1  2  1  0
  1  3  1  0
  2  4  1  0
  4  5  1  0
  2  6  1  0
  6  7  1  0
  5  8  1  0
  7  8  1  0
  7  9  1  0
  6 10  1  1
  3 11  1  0
 10 11  1  0
  9 12  1  0
 12 13  1  0
 13 14  1  0
 13 15  1  0
 15 16  1  0
 16 17  1  0
 14 18  1  0
 18 19  1  0
M  END
$$$$
53
     RDKit          3D

 19 22  0  0  0  0  0  0  0  0999 V2000
   42.9080    1.3228   18.0138 N   0  0  0  0  0  0  0  0  0  0  0  0
   43.9832    1.7227   18.3926 C   0  0  0  0  0  0  0  0  0  0  0  0
   42.8695    0.3948   17.0033 C   0  0  0  0  0  0  0  0  0  0  0  0
   44.2236    0.0273   16.6850 C   0  0  1  0  0  0  0  0  0  0  0  0
   45.0955    0.9716   17.8637 C   0  0  0  0  0  0  0  0  0  0  0  0
   46.4468    0.8102   17.9674 C   0  0  0  0  0  0  0  0  0  0  0  0
   45.0317   -0.7375   15.9757 C   0  0  1  0  0  0  0  0  0  0  0  0
   46.3447   -1.0186   16.1627 C   0  0  2  0  0  0  0  0  0  0  0  0
   46.9785   -2.0105   15.3495 C   0  0  0  0  0  0  0  0  0  0  0  0
   44.1733   -1.4584   14.8135 C   0  0  0  0  0  0  0  0  0  0  0  0
   46.2879   -2.5680   14.2346 C   0  0  2  0  0  0  0  0  0  0  0  0
   47.0205   -0.3387   17.3611 C   0  0  0  0  0  0  0  0  0  0  0  0
   44.9546   -2.3011   13.9930 C   0  0  1  0  0  0  0  0  0  0  0  0
   47.0333   -3.5596   13.3631 C   0  0  0  0  0  0  0  0  0  0  0  0
   46.0948   -4.4156   12.5613 C   0  0  0  0  0  0  0  0  0  0  0  0
   44.1792   -2.9777   12.9698 C   0  0  0  0  0  0  0  0  0  0  0  0
   44.7623   -4.1665   12.2303 C   0  0  2  0  0  0  0  0  0  0  0  0
   43.9499   -5.2315   12.0838 C   0  0  0  0  0  0  0  0  0  0  0  0
   43.0303   -5.5969   13.0139 O   0  0  0  0  0  0  0  0  0  0  0  0
  1  2  1  0
  1  3  1  0
  4  3  1  1
  2  5  1  0
  4  5  1  0
  5  6  1  0
  4  7  1  0
  7  8  1  0
  8  9  1  1
  7 10  1  1
 11  9  1  1
  6 12  1  0
  8 12  1  0
 13 10  1  1
 11 13  1  0
 11 14  1  0
 14 15  1  0
 13 16  1  0
 15 17  1  0
 16 17  1  0
 17 18  1  1
 18 19  1  0
M  END
$$$$
54
     RDKit          3D

 19 21  0  0  0  0  0  0  0  0999 V2000
   42.6956    1.1982   17.6432 N   0  0  0  0  0  0  0  0  0  0  0  0
   43.6947    0.7926   17.6786 C   0  0  0  0  0  0  0  0  0  0  0  0
   44.9892    0.1066   17.5826 C   0  0  2  0  0  0  0  0  0  0  0  0
   45.3979   -0.3705   16.3836 C   0  0  1  0  0  0  0  0  0  0  0  0
   45.7216   -1.7049   16.2352 N   0  0  0  0  0  0  0  0  0  0  0  0
   45.2877    0.2728   15.1133 O   0  0  0  0  0  0  0  0  0  0  0  0
   45.0572   -0.6985   14.1962 C   0  0  2  0  0  0  0  0  0  0  0  0
   45.6628   -1.9892   14.7865 C   0  0  2  0  0  0  0  0  0  0  0  0
   45.6776   -0.5800   12.7680 C   0  0  0  0  0  0  0  0  0  0  0  0
   46.2553   -2.1373   17.4738 C   0  0  0  0  0  0  0  0  0  0  0  0
   45.1400   -3.1142   14.0812 C   0  0  0  0  0  0  0  0  0  0  0  0
   45.7231   -0.5380   18.6578 C   0  0  0  0  0  0  0  0  0  0  0  0
   45.3481   -2.9462   12.5496 C   0  0  1  0  0  0  0  0  0  0  0  0
   46.2951   -1.6893   18.4524 C   0  0  0  0  0  0  0  0  0  0  0  0
   44.8552   -1.6764   12.0506 C   0  0  0  0  0  0  0  0  0  0  0  0
   46.8243   -3.2666   12.2810 C   0  0  0  0  0  0  0  0  0  0  0  0
   44.4386   -4.2130   11.9886 C   0  0  0  0  0  0  0  0  0  0  0  0
   44.0830   -5.1125   12.7991 C   0  0  0  0  0  0  0  0  0  0  0  0
   43.7908   -6.3641   12.6002 C   0  0  0  0  0  0  0  0  0  0  0  0
  1  2  3  0
  3  2  1  1
  3  4  1  0
  4  5  1  0
  4  6  1  6
  6  7  1  0
  5  8  1  0
  7  8  1  0
  7  9  1  6
  5 10  1  0
  8 11  1  1
  3 12  1  0
 11 13  1  0
 10 14  1  0
 12 14  1  0
  9 15  1  0
 13 15  1  0
 13 16  1  1
 13 17  1  0
 17 18  1  0
 18 19  2  0
M  END
$$$$
55
     RDKit          3D

 19 21  0  0  0  0  0  0  0  0999 V2000
   42.6956    1.1982   17.6432 N   0  0  0  0  0  0  0  0  0  0  0  0
   43.5899    0.4685   17.1413 C   0  0  1  0  0  0  0  0  0  0  0  0
   44.7723    0.2992   17.9868 C   0  0  1  0  0  0  0  0  0  0  0  0
   44.8758    0.7980   19.2349 C   0  0  0  0  0  0  0  0  0  0  0  0
   43.4696   -0.2101   15.8891 N   0  0  0  0  0  0  0  0  0  0  0  0
   45.8995   -0.5512   17.6411 C   0  0  0  0  0  0  0  0  0  0  0  0
   43.8715    1.7200   19.5787 C   0  0  0  0  0  0  0  0  0  0  0  0
   45.7225   -1.1623   16.2300 C   0  0  1  0  0  0  0  0  0  0  0  0
   44.5536   -0.8993   15.4889 C   0  0  0  0  0  0  0  0  0  0  0  0
   46.8182   -1.7551   15.5244 C   0  0  0  0  0  0  0  0  0  0  0  0
   44.5049   -1.4947   14.0708 C   0  0  0  0  0  0  0  0  0  0  0  0
   46.7171   -2.3620   14.3282 C   0  0  0  0  0  0  0  0  0  0  0  0
   42.7171    1.9315   18.7567 C   0  0  0  0  0  0  0  0  0  0  0  0
   45.5522   -2.1969   13.5832 C   0  0  0  0  0  0  0  0  0  0  0  0
   45.5239   -2.7935   12.1912 C   0  0  0  0  0  0  0  0  0  0  0  0
   44.7791   -4.1205   12.2933 C   0  0  0  0  0  0  0  0  0  0  0  0
   44.8994   -5.0940   13.1612 C   0  0  0  0  0  0  0  0  0  0  0  0
   44.2285   -6.3863   13.0539 N   0  0  0  0  0  0  0  0  0  0  0  0
   43.8012   -6.7630   11.8156 C   0  0  0  0  0  0  0  0  0  0  0  0
  2  1  1  1
  2  3  1  0
  3  4  1  1
  2  5  1  0
  3  6  1  0
  4  7  1  0
  8  6  1  6
  5  9  1  0
  8  9  1  0
  8 10  1  0
  9 11  1  0
 10 12  1  0
  1 13  1  0
  7 13  1  0
 11 14  1  0
 12 14  1  0
 14 15  1  0
 15 16  1  0
 16 17  2  3
 17 18  1  0
 18 19  1  0
M  END
$$$$
56
     RDKit          3D

 19 20  0  0  0  0  0  0  0  0999 V2000
   43.5958    1.2915   17.9017 C   0  0  0  0  0  0  0  0  0  0  0  0
   44.7920    0.8446   17.7606 C   0  0  1  0  0  0  0  0  0  0  0  0
   42.5251    0.7827   17.1583 C   0  0  0  0  0  0  0  0  0  0  0  0
   42.7809   -0.0261   16.1589 C   0  0  0  0  0  0  0  0  0  0  0  0
   45.9380    1.2727   18.6343 C   0  0  0  0  0  0  0  0  0  0  0  0
   45.0624   -0.1370   16.7931 C   0  0  2  0  0  0  0  0  0  0  0  0
   44.0290   -0.5893   16.0632 C   0  0  2  0  0  0  0  0  0  0  0  0
   44.4743   -1.4363   15.0898 N   0  0  0  0  0  0  0  0  0  0  0  0
   46.5281   -0.7492   16.7895 C   0  0  0  0  0  0  0  0  0  0  0  0
   47.2406   -0.5619   17.8502 C   0  0  0  0  0  0  0  0  0  0  0  0
   47.1289    0.6092   18.6698 C   0  0  0  0  0  0  0  0  0  0  0  0
   44.4499   -1.1938   13.7065 C   0  0  2  0  0  0  0  0  0  0  0  0
   44.8359   -2.4672   12.8957 C   0  0  0  0  0  0  0  0  0  0  0  0
   44.7416   -3.7272   13.6120 C   0  0  0  0  0  0  0  0  0  0  0  0
   44.6616   -4.9299   12.7084 C   0  0  0  0  0  0  0  0  0  0  0  0
   44.9260   -0.0850   13.1013 C   0  0  0  0  0  0  0  0  0  0  0  0
   44.4192    0.0429   11.7749 C   0  0  0  0  0  0  0  0  0  0  0  0
   43.3423   -5.5148   12.6429 C   0  0  0  0  0  0  0  0  0  0  0  0
   43.2817   -6.7661   12.1617 C   0  0  0  0  0  0  0  0  0  0  0  0
  2  1  1  1
  1  3  1  0
  3  4  1  0
  2  5  1  0
  2  6  1  0
  4  7  1  0
  6  7  1  0
  7  8  1  6
  6  9  1  1
  9 10  1  0
  5 11  1  0
 10 11  1  0
  8 12  1  0
 12 13  1  6
 13 14  1  0
 14 15  1  0
 12 16  1  0
 16 17  1  0
 15 18  1  0
 18 19  1  0
M  END
$$$$
57
     RDKit          3D

 19 21  0  0  0  0  0  0  0  0999 V2000
   43.4362    0.9801   18.3618 C   0  0  0  0  0  0  0  0  0  0  0  0
   44.6781    0.5296   18.0170 C   0  0  0  0  0  0  0  0  0  0  0  0
   42.4576    1.1496   17.3923 N   0  0  0  0  0  0  0  0  0  0  0  0
   45.7694    0.4273   18.8906 C   0  0  0  0  0  0  0  0  0  0  0  0
   46.9819   -0.2560   18.5773 C   0  0  0  0  0  0  0  0  0  0  0  0
   44.9445    0.1178   16.6445 C   0  0  1  0  0  0  0  0  0  0  0  0
   45.9534   -0.4542   16.4182 C   0  0  0  0  0  0  0  0  0  0  0  0
   47.0338   -0.7230   17.3104 C   0  0  0  0  0  0  0  0  0  0  0  0
   46.2493   -1.0336   14.8981 C   0  0  0  0  0  0  0  0  0  0  0  0
   43.7016    0.1414   15.9032 N   0  0  0  0  0  0  0  0  0  0  0  0
   42.5856    0.5601   16.2857 C   0  0  0  0  0  0  0  0  0  0  0  0
   46.2940   -2.4094   14.7680 N   0  0  0  0  0  0  0  0  0  0  0  0
   45.6435   -3.0425   13.9268 N   0  0  0  0  0  0  0  0  0  0  0  0
   44.5857   -2.5359   13.2435 C   0  0  0  0  0  0  0  0  0  0  0  0
   44.0707   -3.3807   12.1402 C   0  0  0  0  0  0  0  0  0  0  0  0
   46.0689   -4.3809   13.6201 C   0  0  0  0  0  0  0  0  0  0  0  0
   44.9094   -4.7910   12.4421 C   0  0  1  0  0  0  0  0  0  0  0  0
   43.9849   -5.7547   12.9577 C   0  0  0  0  0  0  0  0  0  0  0  0
   44.3649   -7.1212   12.5843 C   0  0  0  0  0  0  0  0  0  0  0  0
  1  2  1  0
  1  3  1  0
  2  4  1  0
  4  5  1  0
  2  6  1  0
  6  7  1  0
  5  8  1  0
  7  8  1  0
  7  9  1  0
  6 10  1  1
  3 11  1  0
 10 11  1  0
  9 12  1  0
 12 13  1  0
 13 14  1  0
 14 15  1  0
 13 16  1  0
 15 17  1  0
 16 17  1  0
 17 18  1  1
 18 19  1  0
M  END
$$$$
58
     RDKit          3D

 19 21  0  0  0  0  0  0  0  0999 V2000
   42.9616    1.6427   18.4622 N   0  0  0  0  0  0  0  0  0  0  0  0
   43.6592    0.8942   17.7890 C   0  0  2  0  0  0  0  0  0  0  0  0
   43.3844    0.3171   16.5622 N   0  0  0  0  0  0  0  0  0  0  0  0
   44.3031   -0.4752   16.0066 C   0  0  1  0  0  0  0  0  0  0  0  0
   44.9630    0.5003   18.4206 C   0  0  0  0  0  0  0  0  0  0  0  0
   45.8899   -0.2485   17.7868 C   0  0  0  0  0  0  0  0  0  0  0  0
   44.0940   -0.9149   14.6783 N   0  0  0  0  0  0  0  0  0  0  0  0
   44.9965   -1.8706   14.1179 C   0  0  2  0  0  0  0  0  0  0  0  0
   45.5799   -0.7650   16.5850 C   0  0  1  0  0  0  0  0  0  0  0  0
   46.2611   -2.1528   14.7946 C   0  0  0  0  0  0  0  0  0  0  0  0
   46.5142   -1.6480   16.0765 C   0  0  0  0  0  0  0  0  0  0  0  0
   44.8921   -2.3551   12.7261 C   0  0  1  0  0  0  0  0  0  0  0  0
   44.2242   -3.6094   12.6644 C   0  0  0  0  0  0  0  0  0  0  0  0
   44.0178   -1.4070   11.9505 C   0  0  0  0  0  0  0  0  0  0  0  0
   45.1287   -4.8881   12.9089 C   0  0  0  0  0  0  0  0  0  0  0  0
   44.4624   -5.9492   13.1215 N   0  0  0  0  0  0  0  0  0  0  0  0
   44.0419   -0.0005   12.3991 C   0  0  0  0  0  0  0  0  0  0  0  0
   43.8008   -6.6010   12.1170 C   0  0  0  0  0  0  0  0  0  0  0  0
   43.8403   -0.0281   13.8769 C   0  0  0  0  0  0  0  0  0  0  0  0
  2  1  1  1
  2  3  1  0
  4  3  1  6
  2  5  1  0
  5  6  1  0
  4  7  1  0
  7  8  1  0
  4  9  1  0
  9  6  1  1
  8 10  1  6
  9 11  1  0
 10 11  1  0
  8 12  1  0
 12 13  1  1
 12 14  1  0
 13 15  1  0
 15 16  1  0
 14 17  1  0
 16 18  1  0
  7 19  1  0
 17 19  1  0
M  END
$$$$
59
     RDKit          3D

 19 20  0  0  0  0  0  0  0  0999 V2000
   45.5654   -5.9514   13.5958 C   0  0  0  0  0  0  0  0  0  0  0  0
   45.7909   -4.7104   13.7455 C   0  0  2  0  0  0  0  0  0  0  0  0
   44.6215   -6.3912   12.5557 C   0  0  0  0  0  0  0  0  0  0  0  0
   46.5263   -4.0636   14.7071 C   0  0  0  0  0  0  0  0  0  0  0  0
   43.9697   -5.4749   11.6732 C   0  0  0  0  0  0  0  0  0  0  0  0
   45.0865   -3.6104   12.7465 C   0  0  1  0  0  0  0  0  0  0  0  0
   44.1398   -4.1371   11.8651 C   0  0  0  0  0  0  0  0  0  0  0  0
   46.6456   -2.5974   14.7459 C   0  0  2  0  0  0  0  0  0  0  0  0
   47.2779   -1.9647   15.8433 C   0  0  0  0  0  0  0  0  0  0  0  0
   46.1673   -1.4205   16.8032 N   0  0  0  0  0  0  0  0  0  0  0  0
   45.4381   -2.2727   13.0939 C   0  0  2  0  0  0  0  0  0  0  0  0
   44.3091   -1.5701   13.4571 C   0  0  0  0  0  0  0  0  0  0  0  0
   44.3360   -0.1804   12.8278 C   0  0  0  0  0  0  0  0  0  0  0  0
   44.2195   -0.2646   11.4337 C   0  0  0  0  0  0  0  0  0  0  0  0
   46.2979   -0.3703   17.5394 C   0  0  0  0  0  0  0  0  0  0  0  0
   47.3741    0.2977   17.6875 O   0  0  0  0  0  0  0  0  0  0  0  0
   45.0538    0.0164   18.3830 C   0  0  0  0  0  0  0  0  0  0  0  0
   44.2554    1.2457   17.8957 C   0  0  0  0  0  0  0  0  0  0  0  0
   42.7914    1.1313   18.1619 N   0  0  0  0  0  0  0  0  0  0  0  0
  2  1  1  1
  1  3  1  0
  2  4  1  0
  3  5  1  0
  2  6  1  0
  5  7  1  0
  6  7  1  1
  4  8  1  0
  8  9  1  1
  9 10  1  0
  6 11  1  0
  8 11  1  0
 11 12  1  1
 12 13  1  0
 13 14  1  0
 10 15  1  0
 15 16  2  0
 15 17  1  0
 17 18  1  0
 18 19  1  0
M  END
$$$$
6
     RDKit          3D

 14 15  0  0  0  0  0  0  0  0999 V2000
   43.9042    1.6019   18.5628 C   0  0  0  0  0  0  0  0  0  0  0  0
   45.0790    0.9529   18.2449 C   0  0  0  0  0  0  0  0  0  0  0  0
   42.7841    1.1368   17.7770 C   0  0  0  0  0  0  0  0  0  0  0  0
   43.3638    0.2398   16.7389 C   0  0  0  0  0  0  0  0  0  0  0  0
   44.7330    0.1047   17.0684 C   0  0  0  0  0  0  0  0  0  0  0  0
   45.6320   -0.5966   16.2233 C   0  0  2  0  0  0  0  0  0  0  0  0
   45.4461   -0.7286   14.8663 N   0  0  0  0  0  0  0  0  0  0  0  0
   46.7174   -1.2724   16.7743 C   0  0  0  0  0  0  0  0  0  0  0  0
   47.2662   -2.0515   15.7229 C   0  0  0  0  0  0  0  0  0  0  0  0
   44.4913   -0.1731   13.9866 C   0  0  0  0  0  0  0  0  0  0  0  0
   46.3843   -1.9043   14.5447 C   0  0  0  0  0  0  0  0  0  0  0  0
   46.5336   -2.2386   13.4428 O   0  0  0  0  0  0  0  0  0  0  0  0
   45.0715    0.2504   12.7674 C   0  0  0  0  0  0  0  0  0  0  0  0
   44.4381   -0.2523   11.5323 C   0  0  0  0  0  0  0  0  0  0  0  0
  1  2  1  0
  1  3  1  0
  3  4  1  0
  2  5  1  0
  4  5  1  0
  6  5  1  1
  6  7  1  0
  6  8  1  0
  8  9  1  0
  7 10  1  0
  7 11  1  0
  9 11  1  0
 11 12  2  0
 10 13  1  0
 13 14  1  0
M  END
$$$$
60
     RDKit          3D

 19 21  0  0  0  0  0  0  0  0999 V2000
   46.0017   -5.1337   13.2614 C   0  0  0  0  0  0  0  0  0  0  0  0
   44.8786   -5.1921   12.5170 C   0  0  2  0  0  0  0  0  0  0  0  0
   45.8700   -3.8722   13.8969 N   0  0  0  0  0  0  0  0  0  0  0  0
   44.3398   -6.4727   11.9809 C   0  0  0  0  0  0  0  0  0  0  0  0
   44.9402   -3.1054   13.3570 C   0  0  1  0  0  0  0  0  0  0  0  0
   42.9258   -6.7633   12.3388 C   0  0  0  0  0  0  0  0  0  0  0  0
   44.7894   -1.7074   13.6297 C   0  0  2  0  0  0  0  0  0  0  0  0
   44.5127   -3.8273   12.2380 C   0  0  0  0  0  0  0  0  0  0  0  0
   44.9321   -0.6840   12.6326 C   0  0  0  0  0  0  0  0  0  0  0  0
   44.7002   -1.2026   14.9506 C   0  0  2  0  0  0  0  0  0  0  0  0
   44.9092   -2.1001   16.1443 N   0  0  0  0  0  0  0  0  0  0  0  0
   44.4385    0.6054   12.8607 C   0  0  1  0  0  0  0  0  0  0  0  0
   44.3645    0.1019   15.2669 C   0  0  2  0  0  0  0  0  0  0  0  0
   44.3176    0.9739   14.1229 C   0  0  0  0  0  0  0  0  0  0  0  0
   44.2373    0.4890   16.5987 C   0  0  0  0  0  0  0  0  0  0  0  0
   44.4096    1.2593   11.5508 F   0  0  0  0  0  0  0  0  0  0  0  0
   44.8262   -1.5751   17.3501 C   0  0  0  0  0  0  0  0  0  0  0  0
   44.4904   -0.2633   17.5687 C   0  0  1  0  0  0  0  0  0  0  0  0
   44.4911    0.3595   19.1589 Cl  0  0  0  0  0  0  0  0  0  0  0  0
  1  2  1  0
  1  3  1  0
  2  4  1  6
  3  5  1  0
  4  6  1  0
  5  7  1  0
  2  8  1  0
  5  8  1  6
  7  9  1  1
  7 10  1  0
 10 11  1  1
  9 12  1  0
 10 13  1  0
 12 14  1  0
 13 14  1  1
 13 15  1  0
 12 16  1  6
 11 17  1  0
 15 18  1  0
 17 18  1  0
 18 19  1  6
M  END
$$$$
61
     RDKit          3D

 19 20  0  0  0  0  0  0  0  0999 V2000
   43.2352    1.2716   18.0171 C   0  0  0  0  0  0  0  0  0  0  0  0
   44.5574    1.3256   18.1198 C   0  0  0  0  0  0  0  0  0  0  0  0
   42.5750    0.5561   16.9984 C   0  0  0  0  0  0  0  0  0  0  0  0
   43.2515   -0.2197   16.2056 C   0  0  0  0  0  0  0  0  0  0  0  0
   45.3366    0.4177   17.3221 C   0  0  1  0  0  0  0  0  0  0  0  0
   46.7274    0.2622   17.4673 C   0  0  0  0  0  0  0  0  0  0  0  0
   47.2177   -0.7277   18.3024 C   0  0  0  0  0  0  0  0  0  0  0  0
   44.6222   -0.3914   16.3923 C   0  0  2  0  0  0  0  0  0  0  0  0
   46.5654   -1.3914   19.1301 C   0  0  0  0  0  0  0  0  0  0  0  0
   45.5462   -1.0053   15.4225 C   0  0  0  0  0  0  0  0  0  0  0  0
   45.9688   -2.1973   15.6159 N   0  0  0  0  0  0  0  0  0  0  0  0
   46.3460   -3.0159   14.6510 C   0  0  0  0  0  0  0  0  0  0  0  0
   45.3850   -3.2828   13.6747 N   0  0  0  0  0  0  0  0  0  0  0  0
   45.2981   -2.5168   12.6453 C   0  0  0  0  0  0  0  0  0  0  0  0
   44.1754   -2.7917   11.8049 C   0  0  0  0  0  0  0  0  0  0  0  0
   45.8577   -1.3582   12.4324 O   0  0  0  0  0  0  0  0  0  0  0  0
   44.9776   -4.6495   13.1415 C   0  0  0  0  0  0  0  0  0  0  0  0
   44.0288   -4.2903   12.0443 C   0  0  0  0  0  0  0  0  0  0  0  0
   45.6941   -0.3755   14.2979 O   0  0  0  0  0  0  0  0  0  0  0  0
  1  2  1  0
  1  3  1  0
  3  4  1  0
  2  5  1  0
  5  6  1  1
  6  7  1  0
  4  8  1  0
  5  8  1  0
  7  9  1  0
  8 10  1  6
 10 11  1  0
 11 12  1  0
 12 13  1  0
 13 14  1  0
 14 15  1  0
 14 16  2  0
 13 17  1  0
 15 18  1  0
 17 18  1  0
 10 19  2  0
M  END
$$$$
62
     RDKit          3D

 19 20  0  0  0  0  0  0  0  0999 V2000
   45.5654   -5.9514   13.5958 C   0  0  0  0  0  0  0  0  0  0  0  0
   45.7909   -4.7104   13.7455 C   0  0  2  0  0  0  0  0  0  0  0  0
   44.6215   -6.3912   12.5557 C   0  0  0  0  0  0  0  0  0  0  0  0
   46.5263   -4.0636   14.7071 C   0  0  0  0  0  0  0  0  0  0  0  0
   43.9697   -5.4749   11.6732 C   0  0  0  0  0  0  0  0  0  0  0  0
   45.0865   -3.6104   12.7465 C   0  0  1  0  0  0  0  0  0  0  0  0
   44.1398   -4.1371   11.8651 C   0  0  0  0  0  0  0  0  0  0  0  0
   46.6456   -2.5974   14.7459 C   0  0  2  0  0  0  0  0  0  0  0  0
   47.2779   -1.9647   15.8433 C   0  0  0  0  0  0  0  0  0  0  0  0
   46.1673   -1.4205   16.8032 N   0  0  0  0  0  0  0  0  0  0  0  0
   45.4381   -2.2727   13.0939 C   0  0  2  0  0  0  0  0  0  0  0  0
   44.3091   -1.5701   13.4571 C   0  0  0  0  0  0  0  0  0  0  0  0
   44.3360   -0.1804   12.8278 C   0  0  0  0  0  0  0  0  0  0  0  0
   44.2195   -0.2646   11.4337 C   0  0  0  0  0  0  0  0  0  0  0  0
   46.2979   -0.3703   17.5394 C   0  0  0  0  0  0  0  0  0  0  0  0
   47.3741    0.2977   17.6875 O   0  0  0  0  0  0  0  0  0  0  0  0
   45.0276    0.2307   18.2268 C   0  0  0  0  0  0  0  0  0  0  0  0
   43.8618    0.4723   17.4493 C   0  0  0  0  0  0  0  0  0  0  0  0
   42.9006    1.3537   17.9514 C   0  0  0  0  0  0  0  0  0  0  0  0
  2  1  1  1
  1  3  1  0
  2  4  1  0
  3  5  1  0
  2  6  1  0
  5  7  1  0
  6  7  1  1
  4  8  1  0
  8  9  1  1
  9 10  1  0
  6 11  1  0
  8 11  1  0
 11 12  1  1
 12 13  1  0
 13 14  1  0
 10 15  1  0
 15 16  2  0
 15 17  1  0
 17 18  1  0
 18 19  1  0
M  END
$$$$
63
     RDKit          3D

 19 21  0  0  0  0  0  0  0  0999 V2000
   46.0017   -5.1337   13.2614 C   0  0  0  0  0  0  0  0  0  0  0  0
   44.8786   -5.1921   12.5170 C   0  0  2  0  0  0  0  0  0  0  0  0
   45.8700   -3.8722   13.8969 N   0  0  0  0  0  0  0  0  0  0  0  0
   44.3398   -6.4727   11.9809 C   0  0  0  0  0  0  0  0  0  0  0  0
   44.9402   -3.1054   13.3570 C   0  0  1  0  0  0  0  0  0  0  0  0
   42.9258   -6.7633   12.3388 C   0  0  0  0  0  0  0  0  0  0  0  0
   44.7894   -1.7074   13.6297 C   0  0  2  0  0  0  0  0  0  0  0  0
   44.5127   -3.8273   12.2380 C   0  0  0  0  0  0  0  0  0  0  0  0
   44.9321   -0.6840   12.6326 C   0  0  0  0  0  0  0  0  0  0  0  0
   44.7002   -1.2026   14.9506 C   0  0  2  0  0  0  0  0  0  0  0  0
   44.9092   -2.1001   16.1443 N   0  0  0  0  0  0  0  0  0  0  0  0
   44.4385    0.6054   12.8607 C   0  0  0  0  0  0  0  0  0  0  0  0
   44.3645    0.1019   15.2669 C   0  0  2  0  0  0  0  0  0  0  0  0
   44.3176    0.9739   14.1229 C   0  0  0  0  0  0  0  0  0  0  0  0
   44.2373    0.4890   16.5987 C   0  0  2  0  0  0  0  0  0  0  0  0
   44.5102   -0.3963   17.6237 C   0  0  0  0  0  0  0  0  0  0  0  0
   45.1592   -1.5776   17.3193 C   0  0  0  0  0  0  0  0  0  0  0  0
   43.3756    1.5424   16.9233 O   0  0  0  0  0  0  0  0  0  0  0  0
   42.4609    1.2089   17.9109 C   0  0  0  0  0  0  0  0  0  0  0  0
  1  2  1  0
  1  3  1  0
  2  4  1  6
  3  5  1  0
  4  6  1  0
  5  7  1  0
  2  8  1  0
  5  8  1  6
  7  9  1  1
  7 10  1  0
 10 11  1  1
  9 12  1  0
 10 13  1  0
 12 14  1  0
 13 14  1  1
 13 15  1  0
 15 16  1  0
 11 17  1  0
 16 17  1  0
 15 18  1  6
 18 19  1  0
M  END
$$$$
64
     RDKit          3D

 19 20  0  0  0  0  0  0  0  0999 V2000
   44.5604    1.5799   18.8503 C   0  0  0  0  0  0  0  0  0  0  0  0
   43.2812    1.5169   18.3363 C   0  0  0  0  0  0  0  0  0  0  0  0
   45.6086    0.8095   18.2740 C   0  0  0  0  0  0  0  0  0  0  0  0
   43.1444    0.5989   17.1502 C   0  0  0  0  0  0  0  0  0  0  0  0
   45.1257   -0.0328   17.2768 C   0  0  0  0  0  0  0  0  0  0  0  0
   44.0119   -0.0888   16.7208 C   0  0  0  0  0  0  0  0  0  0  0  0
   46.3008   -0.8390   16.6090 C   0  0  0  0  0  0  0  0  0  0  0  0
   46.2064   -0.9705   15.2572 O   0  0  0  0  0  0  0  0  0  0  0  0
   46.1669   -2.2854   14.6689 C   0  0  0  0  0  0  0  0  0  0  0  0
   47.2820   -2.9182   14.6432 C   0  0  0  0  0  0  0  0  0  0  0  0
   44.9466   -2.7046   14.1085 N   0  0  0  0  0  0  0  0  0  0  0  0
   44.8482   -3.8526   13.3508 C   0  0  0  0  0  0  0  0  0  0  0  0
   44.9695   -3.7399   12.0970 C   0  0  0  0  0  0  0  0  0  0  0  0
   45.2730   -2.4636   11.3137 C   0  0  0  0  0  0  0  0  0  0  0  0
   44.4602   -5.0044   11.3830 C   0  0  0  0  0  0  0  0  0  0  0  0
   44.2263   -6.1286   12.3364 C   0  0  0  0  0  0  0  0  0  0  0  0
   44.2731   -1.3681   11.7065 C   0  0  0  0  0  0  0  0  0  0  0  0
   44.4653   -0.1306   10.9863 C   0  0  0  0  0  0  0  0  0  0  0  0
   44.3802   -5.3688   13.6731 C   0  0  0  0  0  0  0  0  0  0  0  0
  1  2  1  0
  1  3  1  0
  2  4  1  0
  3  5  1  0
  4  6  1  0
  5  6  1  0
  5  7  1  0
  7  8  1  0
  8  9  1  0
  9 10  2  0
  9 11  1  0
 11 12  1  0
 12 13  2  0
 13 14  1  0
 13 15  1  0
 15 16  1  0
 14 17  1  0
 17 18  1  0
 12 19  1  0
 16 19  1  0
M  END
$$$$
65
     RDKit          3D

 19 22  0  0  0  0  0  0  0  0999 V2000
   46.9756   -3.1603   14.3610 C   0  0  0  0  0  0  0  0  0  0  0  0
   46.1787   -2.2103   14.9665 N   0  0  0  0  0  0  0  0  0  0  0  0
   46.1844   -4.1274   13.5269 C   0  0  1  0  0  0  0  0  0  0  0  0
   46.5952   -1.3793   15.9428 C   0  0  0  0  0  0  0  0  0  0  0  0
   45.4629   -1.4718   13.8169 C   0  0  2  0  0  0  0  0  0  0  0  0
   44.7197   -2.4589   12.9185 C   0  0  0  0  0  0  0  0  0  0  0  0
   45.1095   -4.7646   14.2939 N   0  0  0  0  0  0  0  0  0  0  0  0
   45.6365   -0.2381   15.9968 C   0  0  1  0  0  0  0  0  0  0  0  0
   45.5302   -3.4585   12.3437 C   0  0  1  0  0  0  0  0  0  0  0  0
   46.4215   -0.6067   13.0574 C   0  0  0  0  0  0  0  0  0  0  0  0
   44.6962   -0.4750   14.8438 C   0  0  0  0  0  0  0  0  0  0  0  0
   45.3054    0.4357   17.2291 C   0  0  0  0  0  0  0  0  0  0  0  0
   43.9554    0.8015   17.5628 C   0  0  0  0  0  0  0  0  0  0  0  0
   43.7278    1.7028   18.5390 C   0  0  0  0  0  0  0  0  0  0  0  0
   46.5300   -2.7882   11.3709 C   0  0  0  0  0  0  0  0  0  0  0  0
   47.0981   -1.5511   11.9473 C   0  0  0  0  0  0  0  0  0  0  0  0
   44.5080   -5.9152   13.4945 C   0  0  0  0  0  0  0  0  0  0  0  0
   44.7005   -4.5963   11.8323 C   0  0  0  0  0  0  0  0  0  0  0  0
   43.9025   -5.4018   12.3352 C   0  0  0  0  0  0  0  0  0  0  0  0
  1  2  1  0
  3  1  1  1
  2  4  1  0
  2  5  1  0
  5  6  1  0
  3  7  1  0
  4  8  1  0
  3  9  1  0
  6  9  1  0
  5 10  1  6
  5 11  1  0
  8 11  1  0
  8 12  1  1
 12 13  1  0
 13 14  1  0
  9 15  1  6
 10 16  1  0
 15 16  1  0
  7 17  1  0
  9 18  1  0
 17 19  1  0
 18 19  1  0
M  END
$$$$
66
     RDKit          3D

 19 21  0  0  0  0  0  0  0  0999 V2000
   44.0044   -6.1162   13.0890 N   0  0  0  0  0  0  0  0  0  0  0  0
   44.5976   -5.0302   13.5082 C   0  0  0  0  0  0  0  0  0  0  0  0
   44.6552   -3.7997   12.9893 C   0  0  2  0  0  0  0  0  0  0  0  0
   44.4527   -3.7670   11.6095 C   0  0  2  0  0  0  0  0  0  0  0  0
   45.2786   -2.5012   13.5806 C   0  0  2  0  0  0  0  0  0  0  0  0
   44.7397   -2.4297   10.9498 C   0  0  0  0  0  0  0  0  0  0  0  0
   45.5075   -2.7068   15.1145 N   0  0  0  0  0  0  0  0  0  0  0  0
   43.7117   -6.0613   11.6853 C   0  0  0  0  0  0  0  0  0  0  0  0
   43.9690   -4.8474   10.9633 C   0  0  0  0  0  0  0  0  0  0  0  0
   46.2511   -1.6725   15.6937 C   0  0  0  0  0  0  0  0  0  0  0  0
   44.5939   -1.3372   13.4141 C   0  0  0  0  0  0  0  0  0  0  0  0
   44.4604   -1.1741   11.7167 C   0  0  2  0  0  0  0  0  0  0  0  0
   43.9707    0.1013   11.2306 C   0  0  0  0  0  0  0  0  0  0  0  0
   45.4775   -0.8091   16.6889 C   0  0  0  0  0  0  0  0  0  0  0  0
   44.2126   -0.2827   16.4542 C   0  0  0  0  0  0  0  0  0  0  0  0
   46.3975    0.0338   17.5565 C   0  0  0  0  0  0  0  0  0  0  0  0
   43.6962    0.6188   17.4955 C   0  0  0  0  0  0  0  0  0  0  0  0
   44.4904    1.1416   18.3207 C   0  0  0  0  0  0  0  0  0  0  0  0
   45.8168    0.8916   18.4672 C   0  0  0  0  0  0  0  0  0  0  0  0
  1  2  1  0
  3  2  1  6
  3  4  1  0
  3  5  1  0
  4  6  1  1
  5  7  1  1
  1  8  1  0
  4  9  1  0
  8  9  1  0
  7 10  1  0
  5 11  1  0
  6 12  1  0
 11 12  1  0
 12 13  1  1
 10 14  1  0
 14 15  1  0
 14 16  1  0
 15 17  1  0
 17 18  1  0
 16 19  1  0
 18 19  1  0
M  END
$$$$
67
     RDKit          3D

 19 20  0  0  0  0  0  0  0  0999 V2000
   43.9042    1.6019   18.5628 C   0  0  0  0  0  0  0  0  0  0  0  0
   45.0790    0.9529   18.2449 C   0  0  0  0  0  0  0  0  0  0  0  0
   42.7841    1.1368   17.7770 C   0  0  0  0  0  0  0  0  0  0  0  0
   43.3638    0.2398   16.7389 C   0  0  0  0  0  0  0  0  0  0  0  0
   44.7330    0.1047   17.0684 C   0  0  0  0  0  0  0  0  0  0  0  0
   45.6320   -0.5966   16.2233 C   0  0  2  0  0  0  0  0  0  0  0  0
   45.4461   -0.7286   14.8663 N   0  0  0  0  0  0  0  0  0  0  0  0
   46.7174   -1.2724   16.7743 C   0  0  0  0  0  0  0  0  0  0  0  0
   47.2662   -2.0515   15.7229 C   0  0  0  0  0  0  0  0  0  0  0  0
   44.4913   -0.1731   13.9866 C   0  0  0  0  0  0  0  0  0  0  0  0
   46.3843   -1.9043   14.5447 C   0  0  0  0  0  0  0  0  0  0  0  0
   46.5336   -2.2386   13.4428 O   0  0  0  0  0  0  0  0  0  0  0  0
   45.0715    0.2504   12.7674 C   0  0  0  0  0  0  0  0  0  0  0  0
   44.8760   -0.4525   11.6327 C   0  0  0  0  0  0  0  0  0  0  0  0
   44.0626   -1.4839   11.5896 C   0  0  0  0  0  0  0  0  0  0  0  0
   44.6747   -2.7971   12.3499 C   0  0  0  0  0  0  0  0  0  0  0  0
   43.8736   -4.0361   12.2739 C   0  0  0  0  0  0  0  0  0  0  0  0
   44.5929   -5.2087   12.0744 C   0  0  0  0  0  0  0  0  0  0  0  0
   43.7376   -6.5288   12.0786 C   0  0  0  0  0  0  0  0  0  0  0  0
  1  2  1  0
  1  3  1  0
  3  4  1  0
  2  5  1  0
  4  5  1  0
  6  5  1  1
  6  7  1  0
  6  8  1  0
  8  9  1  0
  7 10  1  0
  7 11  1  0
  9 11  1  0
 11 12  2  0
 10 13  1  0
 13 14  1  0
 14 15  1  0
 15 16  1  0
 16 17  1  0
 17 18  1  0
 18 19  1  0
M  END
$$$$
68
     RDKit          3D

 19 20  0  0  0  0  0  0  0  0999 V2000
   42.9616    1.6427   18.4622 N   0  0  0  0  0  0  0  0  0  0  0  0
   43.6592    0.8942   17.7890 C   0  0  2  0  0  0  0  0  0  0  0  0
   43.3844    0.3171   16.5622 N   0  0  0  0  0  0  0  0  0  0  0  0
   44.3031   -0.4752   16.0066 C   0  0  1  0  0  0  0  0  0  0  0  0
   44.9630    0.5003   18.4206 C   0  0  0  0  0  0  0  0  0  0  0  0
   45.8899   -0.2485   17.7868 C   0  0  0  0  0  0  0  0  0  0  0  0
   44.0940   -0.9149   14.6783 N   0  0  0  0  0  0  0  0  0  0  0  0
   44.9965   -1.8706   14.1179 C   0  0  2  0  0  0  0  0  0  0  0  0
   45.5799   -0.7650   16.5850 C   0  0  1  0  0  0  0  0  0  0  0  0
   46.2611   -2.1528   14.7946 C   0  0  0  0  0  0  0  0  0  0  0  0
   46.5142   -1.6480   16.0765 C   0  0  0  0  0  0  0  0  0  0  0  0
   44.8921   -2.3551   12.7261 C   0  0  1  0  0  0  0  0  0  0  0  0
   44.2242   -3.6094   12.6644 C   0  0  0  0  0  0  0  0  0  0  0  0
   44.0178   -1.4070   11.9505 C   0  0  0  0  0  0  0  0  0  0  0  0
   45.1287   -4.8881   12.9089 C   0  0  0  0  0  0  0  0  0  0  0  0
   44.4624   -5.9492   13.1215 N   0  0  0  0  0  0  0  0  0  0  0  0
   44.0419   -0.0005   12.3991 C   0  0  0  0  0  0  0  0  0  0  0  0
   44.7622   -7.0564   12.5278 C   0  0  0  0  0  0  0  0  0  0  0  0
   43.7254   -7.4988   11.5957 C   0  0  0  0  0  0  0  0  0  0  0  0
  2  1  1  1
  2  3  1  0
  4  3  1  6
  2  5  1  0
  5  6  1  0
  4  7  1  0
  7  8  1  0
  4  9  1  0
  9  6  1  1
  8 10  1  6
  9 11  1  0
 10 11  1  0
  8 12  1  0
 12 13  1  1
 12 14  1  0
 13 15  1  0
 15 16  1  0
 14 17  1  0
 16 18  1  0
 18 19  1  0
M  END
$$$$
69
     RDKit          3D

 19 19  0  0  0  0  0  0  0  0999 V2000
   44.5604    1.5799   18.8503 C   0  0  0  0  0  0  0  0  0  0  0  0
   43.2812    1.5169   18.3363 C   0  0  0  0  0  0  0  0  0  0  0  0
   45.6086    0.8095   18.2740 C   0  0  0  0  0  0  0  0  0  0  0  0
   43.1444    0.5989   17.1502 C   0  0  0  0  0  0  0  0  0  0  0  0
   45.1257   -0.0328   17.2768 C   0  0  0  0  0  0  0  0  0  0  0  0
   44.0119   -0.0888   16.7208 C   0  0  0  0  0  0  0  0  0  0  0  0
   46.3008   -0.8390   16.6090 C   0  0  2  0  0  0  0  0  0  0  0  0
   46.2064   -0.9705   15.2572 O   0  0  0  0  0  0  0  0  0  0  0  0
   46.4132   -2.1580   17.2192 O   0  0  0  0  0  0  0  0  0  0  0  0
   45.2809   -1.8331   14.7396 C   0  0  2  0  0  0  0  0  0  0  0  0
   45.8860   -2.9987   13.9000 C   0  0  0  0  0  0  0  0  0  0  0  0
   45.5779   -4.2281   14.4351 N   0  0  0  0  0  0  0  0  0  0  0  0
   44.3523   -1.1977   13.7337 C   0  0  0  0  0  0  0  0  0  0  0  0
   45.5733   -5.3686   13.4803 C   0  0  0  0  0  0  0  0  0  0  0  0
   44.8294    0.0634   13.2499 C   0  0  0  0  0  0  0  0  0  0  0  0
   44.2757   -5.3629   12.7336 C   0  0  0  0  0  0  0  0  0  0  0  0
   45.1707   -0.1213   11.7815 C   0  0  0  0  0  0  0  0  0  0  0  0
   43.7427   -6.5691   12.2748 C   0  0  0  0  0  0  0  0  0  0  0  0
   43.9699   -0.5684   11.0533 C   0  0  0  0  0  0  0  0  0  0  0  0
  1  2  1  0
  1  3  1  0
  2  4  1  0
  3  5  1  0
  4  6  1  0
  5  6  1  0
  5  7  1  0
  7  8  1  0
  7  9  1  1
  8 10  1  0
 10 11  1  6
 11 12  1  0
 10 13  1  0
 12 14  1  0
 13 15  1  0
 14 16  1  0
 15 17  1  0
 16 18  1  0
 17 19  1  0
M  END
$$$$
7
     RDKit          3D

 14 15  0  0  0  0  0  0  0  0999 V2000
   42.6853   -6.5012   12.1148 C   0  0  0  0  0  0  0  0  0  0  0  0
   43.5811   -7.2155   11.8044 C   0  0  0  0  0  0  0  0  0  0  0  0
   44.8954   -6.8929   12.1328 C   0  0  0  0  0  0  0  0  0  0  0  0
   44.8872   -5.7590   12.9543 C   0  0  0  0  0  0  0  0  0  0  0  0
   43.8984   -4.9006   12.6915 C   0  0  0  0  0  0  0  0  0  0  0  0
   44.2269   -3.4845   13.1572 C   0  0  0  0  0  0  0  0  0  0  0  0
   44.9977   -2.5202   12.2840 C   0  0  0  0  0  0  0  0  0  0  0  0
   42.7161   -5.1592   12.3868 C   0  0  0  0  0  0  0  0  0  0  0  0
   45.0674   -1.1359   12.6867 C   0  0  0  0  0  0  0  0  0  0  0  0
   46.1298   -0.4571   12.6729 C   0  0  0  0  0  0  0  0  0  0  0  0
   43.8103   -0.5193   13.0993 C   0  0  0  0  0  0  0  0  0  0  0  0
   46.1628    0.8949   13.2230 C   0  0  0  0  0  0  0  0  0  0  0  0
   43.7436    0.8046   13.5300 C   0  0  0  0  0  0  0  0  0  0  0  0
   44.9321    1.3674   13.5686 C   0  0  0  0  0  0  0  0  0  0  0  0
  1  2  1  0
  2  3  1  0
  3  4  1  0
  4  5  1  0
  5  6  1  0
  6  7  1  0
  1  8  1  0
  5  8  1  0
  7  9  1  0
  9 10  1  0
  9 11  1  0
 10 12  1  0
 11 13  1  0
 12 14  1  0
 13 14  1  0
M  END
$$$$
70
     RDKit          3D

 19 20  0  0  0  0  0  0  0  0999 V2000
   44.5604    1.5799   18.8503 C   0  0  0  0  0  0  0  0  0  0  0  0
   43.2812    1.5169   18.3363 C   0  0  0  0  0  0  0  0  0  0  0  0
   45.6086    0.8095   18.2740 C   0  0  0  0  0  0  0  0  0  0  0  0
   43.1444    0.5989   17.1502 C   0  0  0  0  0  0  0  0  0  0  0  0
   45.1257   -0.0328   17.2768 C   0  0  0  0  0  0  0  0  0  0  0  0
   44.0119   -0.0888   16.7208 C   0  0  0  0  0  0  0  0  0  0  0  0
   46.3008   -0.8390   16.6090 C   0  0  0  0  0  0  0  0  0  0  0  0
   46.2064   -0.9705   15.2572 O   0  0  0  0  0  0  0  0  0  0  0  0
   46.1669   -2.2854   14.6689 C   0  0  0  0  0  0  0  0  0  0  0  0
   47.2820   -2.9182   14.6432 C   0  0  0  0  0  0  0  0  0  0  0  0
   44.9466   -2.7046   14.1085 N   0  0  0  0  0  0  0  0  0  0  0  0
   44.8482   -3.8526   13.3508 C   0  0  0  0  0  0  0  0  0  0  0  0
   44.9695   -3.7399   12.0970 C   0  0  0  0  0  0  0  0  0  0  0  0
   45.2730   -2.4636   11.3137 C   0  0  0  0  0  0  0  0  0  0  0  0
   44.4602   -5.0044   11.3830 C   0  0  0  0  0  0  0  0  0  0  0  0
   44.2263   -6.1286   12.3364 C   0  0  0  0  0  0  0  0  0  0  0  0
   44.2731   -1.3681   11.7065 C   0  0  0  0  0  0  0  0  0  0  0  0
   44.3499   -5.3693   13.6692 C   0  0  0  0  0  0  0  0  0  0  0  0
   44.7166   -0.0858   11.7366 C   0  0  0  0  0  0  0  0  0  0  0  0
  1  2  1  0
  1  3  1  0
  2  4  1  0
  3  5  1  0
  4  6  1  0
  5  6  1  0
  5  7  1  0
  7  8  1  0
  8  9  1  0
  9 10  2  0
  9 11  1  0
 11 12  1  0
 12 13  2  0
 13 14  1  0
 13 15  1  0
 15 16  1  0
 14 17  1  0
 12 18  1  0
 16 18  1  0
 17 19  2  0
M  END
$$$$
71
     RDKit          3D

 19 19  0  0  0  0  0  0  0  0999 V2000
   42.5168    1.3863   17.9318 N   0  0  0  0  0  0  0  0  0  0  0  0
   43.4269    0.6962   17.3707 C   0  0  0  0  0  0  0  0  0  0  0  0
   43.3570    0.1048   16.1824 N   0  0  0  0  0  0  0  0  0  0  0  0
   44.6883    0.5682   18.2041 C   0  0  0  0  0  0  0  0  0  0  0  0
   44.4187   -0.5363   15.6646 C   0  0  0  0  0  0  0  0  0  0  0  0
   44.3680   -1.1549   14.4177 C   0  0  0  0  0  0  0  0  0  0  0  0
   45.1616   -0.8110   13.4151 C   0  0  0  0  0  0  0  0  0  0  0  0
   45.8001   -0.0913   17.6154 C   0  0  2  0  0  0  0  0  0  0  0  0
   45.6651   -0.6497   16.4000 N   0  0  0  0  0  0  0  0  0  0  0  0
   46.9053   -0.1525   18.4915 C   0  0  0  0  0  0  0  0  0  0  0  0
   45.0998   -1.6404   12.1767 C   0  0  1  0  0  0  0  0  0  0  0  0
   44.6269   -2.9701   12.3992 C   0  0  0  0  0  0  0  0  0  0  0  0
   44.0934   -0.7909   11.3372 C   0  0  0  0  0  0  0  0  0  0  0  0
   45.3756   -4.0715   12.7428 C   0  0  0  0  0  0  0  0  0  0  0  0
   48.0196   -0.8879   18.2128 O   0  0  0  0  0  0  0  0  0  0  0  0
   44.8373   -5.4335   13.0812 C   0  0  0  0  0  0  0  0  0  0  0  0
   46.9096    0.5176   19.6328 O   0  0  0  0  0  0  0  0  0  0  0  0
   43.7137   -5.8338   12.2226 C   0  0  0  0  0  0  0  0  0  0  0  0
   43.9769   -7.0660   11.7074 C   0  0  0  0  0  0  0  0  0  0  0  0
  1  2  1  0
  2  3  1  0
  2  4  1  0
  3  5  1  0
  5  6  1  0
  6  7  1  0
  4  8  1  0
  5  9  1  0
  8  9  1  0
  8 10  1  1
  7 11  1  0
 11 12  1  0
 11 13  1  6
 12 14  2  3
 10 15  1  0
 14 16  1  0
 10 17  2  0
 16 18  1  0
 18 19  1  0
M  END
$$$$
72
     RDKit          3D

 19 22  0  0  0  0  0  0  0  0999 V2000
   44.5604    1.5799   18.8503 C   0  0  0  0  0  0  0  0  0  0  0  0
   45.5641    0.7969   18.2965 C   0  0  0  0  0  0  0  0  0  0  0  0
   43.2556    1.3763   18.2277 C   0  0  0  0  0  0  0  0  0  0  0  0
   43.2749    0.5120   17.0394 C   0  0  0  0  0  0  0  0  0  0  0  0
   45.3340   -0.0516   17.2006 C   0  0  0  0  0  0  0  0  0  0  0  0
   44.3043   -0.0969   16.7325 C   0  0  2  0  0  0  0  0  0  0  0  0
   46.7345   -0.8890   16.6971 S   0  0  0  0  0  0  0  0  0  0  0  0
   44.4808   -0.9394   15.5417 N   0  0  0  0  0  0  0  0  0  0  0  0
   45.6693   -1.5389   15.4971 C   0  0  1  0  0  0  0  0  0  0  0  0
   46.0119   -1.9484   14.0929 C   0  0  1  0  0  0  0  0  0  0  0  0
   46.2843   -3.3534   14.0965 C   0  0  0  0  0  0  0  0  0  0  0  0
   45.0426   -4.1418   13.7626 C   0  0  1  0  0  0  0  0  0  0  0  0
   44.3712   -3.5429   12.6741 C   0  0  1  0  0  0  0  0  0  0  0  0
   45.5662   -1.2702   12.9847 C   0  0  2  0  0  0  0  0  0  0  0  0
   45.1954    0.0536   12.9869 C   0  0  0  0  0  0  0  0  0  0  0  0
   44.4000   -2.1503   12.3602 C   0  0  0  0  0  0  0  0  0  0  0  0
   45.3432   -5.6191   13.5330 C   0  0  0  0  0  0  0  0  0  0  0  0
   44.7409   -6.1310   12.2929 C   0  0  0  0  0  0  0  0  0  0  0  0
   43.7725   -4.8622   11.9358 C   0  0  0  0  0  0  0  0  0  0  0  0
  1  2  1  0
  1  3  1  0
  3  4  1  0
  2  5  1  0
  6  4  1  6
  5  6  1  0
  5  7  1  0
  6  8  1  0
  7  9  1  0
  9  8  1  6
  9 10  1  0
 10 11  1  6
 12 11  1  6
 12 13  1  0
 10 14  1  0
 14 15  1  1
 13 16  1  6
 14 16  1  0
 12 17  1  0
 17 18  1  0
 13 19  1  0
 18 19  1  0
M  END
$$$$
73
     RDKit          3D

 19 21  0  0  0  0  0  0  0  0999 V2000
   42.6956    1.1982   17.6432 N   0  0  0  0  0  0  0  0  0  0  0  0
   43.5899    0.4685   17.1413 C   0  0  1  0  0  0  0  0  0  0  0  0
   44.7723    0.2992   17.9868 C   0  0  1  0  0  0  0  0  0  0  0  0
   44.8758    0.7980   19.2349 C   0  0  0  0  0  0  0  0  0  0  0  0
   43.4696   -0.2101   15.8891 N   0  0  0  0  0  0  0  0  0  0  0  0
   45.8995   -0.5512   17.6411 C   0  0  0  0  0  0  0  0  0  0  0  0
   43.8715    1.7200   19.5787 C   0  0  0  0  0  0  0  0  0  0  0  0
   45.7225   -1.1623   16.2300 C   0  0  0  0  0  0  0  0  0  0  0  0
   42.7488    1.9306   18.7924 C   0  0  0  0  0  0  0  0  0  0  0  0
   44.5600   -0.9458   15.4886 C   0  0  0  0  0  0  0  0  0  0  0  0
   44.4440   -1.5837   14.1283 C   0  0  0  0  0  0  0  0  0  0  0  0
   46.8147   -1.9607   15.7070 C   0  0  0  0  0  0  0  0  0  0  0  0
   45.4917   -2.4202   13.7375 C   0  0  2  0  0  0  0  0  0  0  0  0
   46.6029   -2.5801   14.4383 C   0  0  0  0  0  0  0  0  0  0  0  0
   45.4455   -3.0952   12.3320 C   0  0  0  0  0  0  0  0  0  0  0  0
   44.8553   -4.4658   12.5415 C   0  0  0  0  0  0  0  0  0  0  0  0
   43.6619   -4.8061   12.3262 C   0  0  0  0  0  0  0  0  0  0  0  0
   43.2164   -6.1473   12.4212 C   0  0  0  0  0  0  0  0  0  0  0  0
   43.8053   -7.0309   11.6095 C   0  0  0  0  0  0  0  0  0  0  0  0
  2  1  1  1
  2  3  1  0
  3  4  1  1
  2  5  1  0
  3  6  1  0
  4  7  1  0
  6  8  1  0
  1  9  1  0
  7  9  1  0
  5 10  1  0
  8 10  1  0
 10 11  1  0
  8 12  1  0
 11 13  1  0
 12 14  1  0
 13 14  1  0
 13 15  1  6
 15 16  1  0
 16 17  1  0
 17 18  1  0
 18 19  2  0
M  END
$$$$
74
     RDKit          3D

 19 20  0  0  0  0  0  0  0  0999 V2000
   46.9756   -3.1603   14.3610 C   0  0  0  0  0  0  0  0  0  0  0  0
   46.1787   -2.2103   14.9665 N   0  0  0  0  0  0  0  0  0  0  0  0
   46.2202   -3.7861   13.2667 C   0  0  1  0  0  0  0  0  0  0  0  0
   46.5748   -1.4953   16.1042 C   0  0  0  0  0  0  0  0  0  0  0  0
   45.4300   -4.8795   13.7387 C   0  0  0  0  0  0  0  0  0  0  0  0
   45.7467   -2.9781   12.1539 C   0  0  0  0  0  0  0  0  0  0  0  0
   44.6761   -1.9823   12.6646 C   0  0  2  0  0  0  0  0  0  0  0  0
   44.2765   -0.9754   11.6296 C   0  0  0  0  0  0  0  0  0  0  0  0
   45.0146   -5.9818   12.8654 C   0  0  0  0  0  0  0  0  0  0  0  0
   45.3160   -1.1799   13.8964 C   0  0  0  0  0  0  0  0  0  0  0  0
   43.6346   -5.9332   12.3662 C   0  0  0  0  0  0  0  0  0  0  0  0
   44.4350    0.3134   11.7701 C   0  0  0  0  0  0  0  0  0  0  0  0
   44.8892    0.7935   13.1745 C   0  0  0  0  0  0  0  0  0  0  0  0
   43.2111   -7.1304   11.5146 C   0  0  0  0  0  0  0  0  0  0  0  0
   45.2403    0.0611   14.1070 C   0  0  0  0  0  0  0  0  0  0  0  0
   45.6236   -0.8830   16.9697 C   0  0  0  0  0  0  0  0  0  0  0  0
   45.3147    0.4911   16.8501 O   0  0  0  0  0  0  0  0  0  0  0  0
   44.0182    0.9733   17.2050 C   0  0  0  0  0  0  0  0  0  0  0  0
   43.8262    1.9168   18.1119 C   0  0  0  0  0  0  0  0  0  0  0  0
  1  2  1  0
  1  3  1  0
  2  4  1  0
  3  5  1  1
  3  6  1  0
  7  6  1  6
  7  8  1  0
  5  9  1  0
  2 10  1  0
  7 10  1  0
  9 11  2  3
  8 12  1  0
 12 13  1  0
 11 14  1  0
 10 15  1  0
 13 15  1  0
  4 16  1  0
 16 17  1  0
 17 18  1  0
 18 19  1  0
M  END
$$$$
75
     RDKit          3D

 20 21  0  0  0  0  0  0  0  0999 V2000
   44.5604    1.5799   18.8503 C   0  0  0  0  0  0  0  0  0  0  0  0
   43.2812    1.5169   18.3363 C   0  0  0  0  0  0  0  0  0  0  0  0
   45.4118    0.6491   18.1971 C   0  0  0  0  0  0  0  0  0  0  0  0
   45.0245   -0.0804   17.0190 C   0  0  0  0  0  0  0  0  0  0  0  0
   43.0083    0.7878   17.1193 C   0  0  0  0  0  0  0  0  0  0  0  0
   46.0565   -0.9300   16.4689 C   0  0  0  0  0  0  0  0  0  0  0  0
   46.6447   -1.7662   17.3421 O   0  0  0  0  0  0  0  0  0  0  0  0
   43.8227   -0.0033   16.5690 C   0  0  0  0  0  0  0  0  0  0  0  0
   45.9648   -1.2912   15.1646 N   0  0  0  0  0  0  0  0  0  0  0  0
   45.4763   -0.4203   14.3189 C   0  0  0  0  0  0  0  0  0  0  0  0
   46.1884   -2.7107   14.8190 C   0  0  2  0  0  0  0  0  0  0  0  0
   47.4410   -2.9816   14.3226 C   0  0  0  0  0  0  0  0  0  0  0  0
   45.1593   -3.2300   13.7919 C   0  0  2  0  0  0  0  0  0  0  0  0
   44.8441   -0.9297   13.1105 C   0  0  0  0  0  0  0  0  0  0  0  0
   45.4853   -4.6210   13.3088 C   0  0  0  0  0  0  0  0  0  0  0  0
   45.0123   -5.6606   14.1603 N   0  0  0  0  0  0  0  0  0  0  0  0
   45.6157   -4.8321   12.0784 O   0  0  0  0  0  0  0  0  0  0  0  0
   45.1702   -2.2416   12.5882 C   0  0  0  0  0  0  0  0  0  0  0  0
   44.2071   -0.0513   12.2777 C   0  0  0  0  0  0  0  0  0  0  0  0
   43.9137   -0.4858   11.0451 C   0  0  0  0  0  0  0  0  0  0  0  0
  1  2  1  0
  1  3  1  0
  3  4  1  0
  2  5  1  0
  4  6  1  0
  6  7  2  0
  4  8  1  0
  5  8  1  0
  6  9  1  0
  9 10  1  0
  9 11  1  0
 11 12  1  6
 11 13  1  0
 10 14  1  0
 13 15  1  6
 15 16  1  0
 15 17  2  0
 13 18  1  0
 14 18  1  0
 14 19  2  3
 19 20  1  0
M  END
$$$$
76
     RDKit          3D

 20 22  0  0  0  0  0  0  0  0999 V2000
   43.4362    0.9801   18.3618 C   0  0  0  0  0  0  0  0  0  0  0  0
   44.6781    0.5296   18.0170 C   0  0  0  0  0  0  0  0  0  0  0  0
   42.4576    1.1496   17.3923 N   0  0  0  0  0  0  0  0  0  0  0  0
   45.7694    0.4273   18.8906 C   0  0  0  0  0  0  0  0  0  0  0  0
   46.9819   -0.2560   18.5773 C   0  0  0  0  0  0  0  0  0  0  0  0
   44.9445    0.1178   16.6445 C   0  0  1  0  0  0  0  0  0  0  0  0
   45.9534   -0.4542   16.4182 C   0  0  0  0  0  0  0  0  0  0  0  0
   47.0338   -0.7230   17.3104 C   0  0  0  0  0  0  0  0  0  0  0  0
   46.2493   -1.0336   14.8981 C   0  0  0  0  0  0  0  0  0  0  0  0
   43.7016    0.1414   15.9032 N   0  0  0  0  0  0  0  0  0  0  0  0
   42.5856    0.5601   16.2857 C   0  0  0  0  0  0  0  0  0  0  0  0
   46.2940   -2.4094   14.7680 N   0  0  0  0  0  0  0  0  0  0  0  0
   45.6435   -3.0425   13.9268 N   0  0  0  0  0  0  0  0  0  0  0  0
   44.5857   -2.5359   13.2435 C   0  0  0  0  0  0  0  0  0  0  0  0
   44.0707   -3.3807   12.1402 C   0  0  0  0  0  0  0  0  0  0  0  0
   44.6311   -4.7756   12.1557 C   0  0  0  0  0  0  0  0  0  0  0  0
   46.0336   -4.4684   14.0014 C   0  0  0  0  0  0  0  0  0  0  0  0
   43.8842   -5.6438   11.3670 C   0  0  0  0  0  0  0  0  0  0  0  0
   45.1926   -5.2890   13.1202 C   0  0  0  0  0  0  0  0  0  0  0  0
   43.3059   -6.9068   11.9928 C   0  0  0  0  0  0  0  0  0  0  0  0
  1  2  1  0
  1  3  1  0
  2  4  1  0
  4  5  1  0
  2  6  1  0
  6  7  1  0
  5  8  1  0
  7  8  1  0
  7  9  1  0
  6 10  1  1
  3 11  1  0
 10 11  1  0
  9 12  1  0
 12 13  1  0
 13 14  1  0
 14 15  1  0
 15 16  1  0
 13 17  1  0
 16 18  1  0
 16 19  1  0
 17 19  1  0
 18 20  1  0
M  END
$$$$
77
     RDKit          3D

 20 22  0  0  0  0  0  0  0  0999 V2000
   43.4362    0.9801   18.3618 C   0  0  0  0  0  0  0  0  0  0  0  0
   44.6781    0.5296   18.0170 C   0  0  0  0  0  0  0  0  0  0  0  0
   42.4576    1.1496   17.3923 N   0  0  0  0  0  0  0  0  0  0  0  0
   45.7694    0.4273   18.8906 C   0  0  0  0  0  0  0  0  0  0  0  0
   46.9819   -0.2560   18.5773 C   0  0  0  0  0  0  0  0  0  0  0  0
   44.9445    0.1178   16.6445 C   0  0  1  0  0  0  0  0  0  0  0  0
   45.9534   -0.4542   16.4182 C   0  0  0  0  0  0  0  0  0  0  0  0
   47.0338   -0.7230   17.3104 C   0  0  0  0  0  0  0  0  0  0  0  0
   46.2493   -1.0336   14.8981 C   0  0  0  0  0  0  0  0  0  0  0  0
   43.7016    0.1414   15.9032 N   0  0  0  0  0  0  0  0  0  0  0  0
   42.5856    0.5601   16.2857 C   0  0  0  0  0  0  0  0  0  0  0  0
   46.2940   -2.4094   14.7680 N   0  0  0  0  0  0  0  0  0  0  0  0
   45.6435   -3.0425   13.9268 N   0  0  0  0  0  0  0  0  0  0  0  0
   44.5857   -2.5359   13.2435 C   0  0  0  0  0  0  0  0  0  0  0  0
   44.0707   -3.3807   12.1402 C   0  0  0  0  0  0  0  0  0  0  0  0
   44.6311   -4.7756   12.1557 C   0  0  0  0  0  0  0  0  0  0  0  0
   46.0336   -4.4684   14.0014 C   0  0  0  0  0  0  0  0  0  0  0  0
   43.8842   -5.6438   11.3670 C   0  0  0  0  0  0  0  0  0  0  0  0
   45.4684   -5.2893   13.0588 C   0  0  0  0  0  0  0  0  0  0  0  0
   44.3295   -7.0065   11.4036 O   0  0  0  0  0  0  0  0  0  0  0  0
  1  2  1  0
  1  3  1  0
  2  4  1  0
  4  5  1  0
  2  6  1  0
  6  7  1  0
  5  8  1  0
  7  8  1  0
  7  9  1  0
  6 10  1  1
  3 11  1  0
 10 11  1  0
  9 12  1  0
 12 13  1  0
 13 14  1  0
 14 15  1  0
 15 16  1  0
 13 17  1  0
 16 18  1  0
 16 19  1  0
 17 19  1  0
 18 20  1  0
M  END
$$$$
78
     RDKit          3D

 20 21  0  0  0  0  0  0  0  0999 V2000
   44.0040    1.3460   18.7226 C   0  0  0  0  0  0  0  0  0  0  0  0
   45.0644    0.6098   18.2992 C   0  0  0  0  0  0  0  0  0  0  0  0
   42.8045    1.3675   17.9568 N   0  0  0  0  0  0  0  0  0  0  0  0
   44.7617   -0.0655   17.1756 C   0  0  0  0  0  0  0  0  0  0  0  0
   42.6532    0.7279   16.8946 C   0  0  0  0  0  0  0  0  0  0  0  0
   45.9243   -0.8437   16.5827 C   0  0  0  0  0  0  0  0  0  0  0  0
   43.6556    0.0082   16.4112 C   0  0  0  0  0  0  0  0  0  0  0  0
   45.9717   -1.1428   15.2632 N   0  0  0  0  0  0  0  0  0  0  0  0
   46.2139   -2.5386   14.8667 C   0  0  0  0  0  0  0  0  0  0  0  0
   45.9552   -2.9540   13.7107 C   0  0  1  0  0  0  0  0  0  0  0  0
   46.9746   -1.3175   17.3067 O   0  0  0  0  0  0  0  0  0  0  0  0
   44.8950   -4.0256   13.6250 N   0  0  0  0  0  0  0  0  0  0  0  0
   46.3248   -2.4243   12.5600 C   0  0  0  0  0  0  0  0  0  0  0  0
   44.3508   -4.2758   12.3999 C   0  0  1  0  0  0  0  0  0  0  0  0
   45.0304   -3.7297   11.2867 C   0  0  0  0  0  0  0  0  0  0  0  0
   45.9512   -2.7567   11.3826 C   0  0  0  0  0  0  0  0  0  0  0  0
   43.5391   -5.4481   12.3933 C   0  0  0  0  0  0  0  0  0  0  0  0
   43.5647   -6.3135   11.3609 F   0  0  0  0  0  0  0  0  0  0  0  0
   42.2006   -5.1615   12.2208 F   0  0  0  0  0  0  0  0  0  0  0  0
   43.6890   -6.1356   13.6228 F   0  0  0  0  0  0  0  0  0  0  0  0
  1  2  1  0
  1  3  1  0
  2  4  1  0
  3  5  1  0
  4  6  1  0
  4  7  1  0
  5  7  1  0
  6  8  1  0
  8  9  1  0
 10  9  1  1
  6 11  2  0
 10 12  1  0
 10 13  1  0
 12 14  1  0
 14 15  1  0
 13 16  1  0
 15 16  1  0
 14 17  1  6
 17 18  1  0
 17 19  1  0
 17 20  1  0
M  END
$$$$
79
     RDKit          3D

 20 22  0  0  0  0  0  0  0  0999 V2000
   46.0017   -5.1337   13.2614 C   0  0  0  0  0  0  0  0  0  0  0  0
   44.8786   -5.1921   12.5170 C   0  0  2  0  0  0  0  0  0  0  0  0
   45.8700   -3.8722   13.8969 N   0  0  0  0  0  0  0  0  0  0  0  0
   44.3398   -6.4727   11.9809 C   0  0  0  0  0  0  0  0  0  0  0  0
   44.9402   -3.1054   13.3570 C   0  0  1  0  0  0  0  0  0  0  0  0
   42.9258   -6.7633   12.3388 C   0  0  0  0  0  0  0  0  0  0  0  0
   44.7894   -1.7074   13.6297 C   0  0  2  0  0  0  0  0  0  0  0  0
   44.5127   -3.8273   12.2380 C   0  0  0  0  0  0  0  0  0  0  0  0
   44.9321   -0.6840   12.6326 C   0  0  0  0  0  0  0  0  0  0  0  0
   44.7002   -1.2026   14.9506 C   0  0  2  0  0  0  0  0  0  0  0  0
   44.9092   -2.1001   16.1443 N   0  0  0  0  0  0  0  0  0  0  0  0
   44.4385    0.6054   12.8607 C   0  0  1  0  0  0  0  0  0  0  0  0
   44.3645    0.1019   15.2669 C   0  0  2  0  0  0  0  0  0  0  0  0
   44.3176    0.9739   14.1229 C   0  0  0  0  0  0  0  0  0  0  0  0
   44.2373    0.4890   16.5987 C   0  0  0  0  0  0  0  0  0  0  0  0
   44.4096    1.2593   11.5508 F   0  0  0  0  0  0  0  0  0  0  0  0
   44.8262   -1.5751   17.3501 C   0  0  0  0  0  0  0  0  0  0  0  0
   44.4904   -0.2633   17.5687 C   0  0  0  0  0  0  0  0  0  0  0  0
   44.4275    0.2517   18.9753 C   0  0  0  0  0  0  0  0  0  0  0  0
   43.4460    1.2837   19.1317 C   0  0  0  0  0  0  0  0  0  0  0  0
  1  2  1  0
  1  3  1  0
  2  4  1  6
  3  5  1  0
  4  6  1  0
  5  7  1  0
  2  8  1  0
  5  8  1  6
  7  9  1  1
  7 10  1  0
 10 11  1  1
  9 12  1  0
 10 13  1  0
 12 14  1  0
 13 14  1  1
 13 15  1  0
 12 16  1  6
 11 17  1  0
 15 18  1  0
 17 18  1  0
 18 19  1  0
 19 20  1  0
M  END
$$$$
8
     RDKit          3D

 15 16  0  0  0  0  0  0  0  0999 V2000
   45.4104   -0.7737   18.2956 C   0  0  0  0  0  0  0  0  0  0  0  0
   45.7913   -1.1598   17.1383 C   0  0  1  0  0  0  0  0  0  0  0  0
   46.8285   -1.9491   16.8934 O   0  0  0  0  0  0  0  0  0  0  0  0
   44.3802    0.2714   18.4250 C   0  0  2  0  0  0  0  0  0  0  0  0
   44.9434   -0.8359   15.8683 C   0  0  0  0  0  0  0  0  0  0  0  0
   45.3483   -1.4435   14.6204 C   0  0  1  0  0  0  0  0  0  0  0  0
   44.0151    0.8926   19.6942 C   0  0  0  0  0  0  0  0  0  0  0  0
   43.8229    0.0220   15.9910 C   0  0  0  0  0  0  0  0  0  0  0  0
   46.1849   -2.4571   14.5492 N   0  0  0  0  0  0  0  0  0  0  0  0
   43.5583    0.6034   17.3626 C   0  0  0  0  0  0  0  0  0  0  0  0
   44.3169   -1.3523   13.5370 C   0  0  0  0  0  0  0  0  0  0  0  0
   46.4738   -3.1097   13.4584 C   0  0  0  0  0  0  0  0  0  0  0  0
   45.0515   -1.4876   12.2553 C   0  0  1  0  0  0  0  0  0  0  0  0
   45.7067   -2.8016   12.2153 C   0  0  0  0  0  0  0  0  0  0  0  0
   44.6843   -0.5939   11.3128 C   0  0  0  0  0  0  0  0  0  0  0  0
  1  2  1  0
  2  3  1  1
  1  4  1  0
  2  5  1  0
  6  5  1  1
  4  7  1  1
  5  8  1  0
  6  9  1  0
  4 10  1  0
  8 10  1  0
  6 11  1  0
  9 12  1  0
 11 13  1  0
 12 14  1  0
 13 14  1  0
 13 15  1  6
M  END
$$$$
80
     RDKit          3D

 20 22  0  0  0  0  0  0  0  0999 V2000
   44.0044   -6.1162   13.0890 N   0  0  0  0  0  0  0  0  0  0  0  0
   44.5976   -5.0302   13.5082 C   0  0  0  0  0  0  0  0  0  0  0  0
   44.6552   -3.7997   12.9893 C   0  0  2  0  0  0  0  0  0  0  0  0
   44.4527   -3.7670   11.6095 C   0  0  2  0  0  0  0  0  0  0  0  0
   45.2786   -2.5012   13.5806 C   0  0  2  0  0  0  0  0  0  0  0  0
   44.7397   -2.4297   10.9498 C   0  0  0  0  0  0  0  0  0  0  0  0
   45.5075   -2.7068   15.1145 N   0  0  0  0  0  0  0  0  0  0  0  0
   43.7117   -6.0613   11.6853 C   0  0  0  0  0  0  0  0  0  0  0  0
   43.9690   -4.8474   10.9633 C   0  0  0  0  0  0  0  0  0  0  0  0
   46.2511   -1.6725   15.6937 C   0  0  0  0  0  0  0  0  0  0  0  0
   44.5939   -1.3372   13.4141 C   0  0  0  0  0  0  0  0  0  0  0  0
   44.4604   -1.1741   11.7167 C   0  0  2  0  0  0  0  0  0  0  0  0
   43.9707    0.1013   11.2306 C   0  0  0  0  0  0  0  0  0  0  0  0
   45.4775   -0.8091   16.6889 C   0  0  2  0  0  0  0  0  0  0  0  0
   44.2126   -0.2827   16.4542 C   0  0  0  0  0  0  0  0  0  0  0  0
   46.3975    0.0338   17.5565 C   0  0  0  0  0  0  0  0  0  0  0  0
   43.6962    0.6188   17.4955 C   0  0  2  0  0  0  0  0  0  0  0  0
   42.2925    1.0160   17.4560 N   0  0  0  0  0  0  0  0  0  0  0  0
   44.6265    1.3499   18.3303 C   0  0  0  0  0  0  0  0  0  0  0  0
   45.9734    0.8394   18.3750 C   0  0  0  0  0  0  0  0  0  0  0  0
  1  2  1  0
  3  2  1  6
  3  4  1  0
  3  5  1  0
  4  6  1  1
  5  7  1  1
  1  8  1  0
  4  9  1  0
  8  9  1  0
  7 10  1  0
  5 11  1  0
  6 12  1  0
 11 12  1  0
 12 13  1  1
 14 10  1  6
 14 15  1  0
 14 16  1  0
 15 17  1  0
 17 18  1  6
 17 19  1  0
 16 20  1  0
 19 20  1  0
M  END
$$$$
81
     RDKit          3D

 20 21  0  0  0  0  0  0  0  0999 V2000
   45.5654   -5.9514   13.5958 C   0  0  0  0  0  0  0  0  0  0  0  0
   45.7909   -4.7104   13.7455 C   0  0  2  0  0  0  0  0  0  0  0  0
   44.6215   -6.3912   12.5557 C   0  0  0  0  0  0  0  0  0  0  0  0
   46.5263   -4.0636   14.7071 C   0  0  0  0  0  0  0  0  0  0  0  0
   43.9697   -5.4749   11.6732 C   0  0  0  0  0  0  0  0  0  0  0  0
   45.0865   -3.6104   12.7465 C   0  0  1  0  0  0  0  0  0  0  0  0
   44.1398   -4.1371   11.8651 C   0  0  0  0  0  0  0  0  0  0  0  0
   46.6456   -2.5974   14.7459 C   0  0  2  0  0  0  0  0  0  0  0  0
   47.2779   -1.9647   15.8433 C   0  0  0  0  0  0  0  0  0  0  0  0
   46.1673   -1.4205   16.8032 N   0  0  0  0  0  0  0  0  0  0  0  0
   45.4381   -2.2727   13.0939 C   0  0  2  0  0  0  0  0  0  0  0  0
   44.3091   -1.5701   13.4571 C   0  0  0  0  0  0  0  0  0  0  0  0
   44.3360   -0.1804   12.8278 C   0  0  0  0  0  0  0  0  0  0  0  0
   44.2195   -0.2646   11.4337 C   0  0  0  0  0  0  0  0  0  0  0  0
   46.2979   -0.3703   17.5394 C   0  0  0  0  0  0  0  0  0  0  0  0
   47.3741    0.2977   17.6875 O   0  0  0  0  0  0  0  0  0  0  0  0
   45.0538    0.0164   18.3830 C   0  0  0  0  0  0  0  0  0  0  0  0
   43.9341    0.6641   17.6241 C   0  0  0  0  0  0  0  0  0  0  0  0
   43.1043    1.4886   18.1215 N   0  0  0  0  0  0  0  0  0  0  0  0
   43.8593    0.4766   16.6096 O   0  0  0  0  0  0  0  0  0  0  0  0
  2  1  1  1
  1  3  1  0
  2  4  1  0
  3  5  1  0
  2  6  1  0
  5  7  1  0
  6  7  1  1
  4  8  1  0
  8  9  1  1
  9 10  1  0
  6 11  1  0
  8 11  1  0
 11 12  1  1
 12 13  1  0
 13 14  1  0
 10 15  1  0
 15 16  2  0
 15 17  1  0
 17 18  1  0
 18 19  1  0
 18 20  2  0
M  END
$$$$
82
     RDKit          3D

 20 22  0  0  0  0  0  0  0  0999 V2000
   45.5654   -5.9514   13.5958 C   0  0  0  0  0  0  0  0  0  0  0  0
   45.7909   -4.7104   13.7455 C   0  0  2  0  0  0  0  0  0  0  0  0
   44.6215   -6.3912   12.5557 C   0  0  0  0  0  0  0  0  0  0  0  0
   46.5263   -4.0636   14.7071 C   0  0  0  0  0  0  0  0  0  0  0  0
   43.9697   -5.4749   11.6732 C   0  0  0  0  0  0  0  0  0  0  0  0
   45.0865   -3.6104   12.7465 C   0  0  1  0  0  0  0  0  0  0  0  0
   44.1398   -4.1371   11.8651 C   0  0  0  0  0  0  0  0  0  0  0  0
   46.6456   -2.5974   14.7459 C   0  0  2  0  0  0  0  0  0  0  0  0
   47.2779   -1.9647   15.8433 C   0  0  0  0  0  0  0  0  0  0  0  0
   46.1673   -1.4205   16.8032 N   0  0  0  0  0  0  0  0  0  0  0  0
   45.4381   -2.2727   13.0939 C   0  0  2  0  0  0  0  0  0  0  0  0
   44.3091   -1.5701   13.4571 C   0  0  0  0  0  0  0  0  0  0  0  0
   45.0874   -0.7488   16.5095 C   0  0  0  0  0  0  0  0  0  0  0  0
   46.4980   -1.4831   18.1984 C   0  0  0  0  0  0  0  0  0  0  0  0
   45.4594   -0.7090   18.9015 C   0  0  0  0  0  0  0  0  0  0  0  0
   44.5466   -0.1929   17.8184 C   0  0  1  0  0  0  0  0  0  0  0  0
   43.5587    0.6513   18.1985 C   0  0  0  0  0  0  0  0  0  0  0  0
   43.4479    1.3949   19.2446 N   0  0  0  0  0  0  0  0  0  0  0  0
   42.4409    0.7159   17.2126 N   0  0  0  0  0  0  0  0  0  0  0  0
   44.3800   -0.1069   12.9168 C   0  0  0  0  0  0  0  0  0  0  0  0
  2  1  1  1
  1  3  1  0
  2  4  1  0
  3  5  1  0
  2  6  1  0
  5  7  1  0
  6  7  1  1
  4  8  1  0
  8  9  1  1
  9 10  1  0
  6 11  1  0
  8 11  1  0
 11 12  1  1
 10 13  1  0
 10 14  1  0
 14 15  1  0
 13 16  1  0
 15 16  1  0
 16 17  1  6
 17 18  1  0
 17 19  2  0
 12 20  1  0
M  END
$$$$
83
     RDKit          3D

 20 22  0  0  0  0  0  0  0  0999 V2000
   44.5604    1.5799   18.8503 C   0  0  0  0  0  0  0  0  0  0  0  0
   43.2812    1.5169   18.3363 C   0  0  0  0  0  0  0  0  0  0  0  0
   45.6086    0.8095   18.2740 C   0  0  0  0  0  0  0  0  0  0  0  0
   43.1444    0.5989   17.1502 C   0  0  0  0  0  0  0  0  0  0  0  0
   45.1257   -0.0328   17.2768 C   0  0  0  0  0  0  0  0  0  0  0  0
   44.0119   -0.0888   16.7208 C   0  0  0  0  0  0  0  0  0  0  0  0
   46.3008   -0.8390   16.6090 C   0  0  2  0  0  0  0  0  0  0  0  0
   46.2064   -0.9705   15.2572 O   0  0  0  0  0  0  0  0  0  0  0  0
   46.4132   -2.1580   17.2192 O   0  0  0  0  0  0  0  0  0  0  0  0
   45.2809   -1.8331   14.7396 C   0  0  2  0  0  0  0  0  0  0  0  0
   45.8860   -2.9987   13.9000 C   0  0  1  0  0  0  0  0  0  0  0  0
   45.5779   -4.2281   14.4351 N   0  0  0  0  0  0  0  0  0  0  0  0
   44.3523   -1.1977   13.7337 C   0  0  0  0  0  0  0  0  0  0  0  0
   45.7315   -5.2755   13.7725 C   0  0  0  0  0  0  0  0  0  0  0  0
   45.3041   -2.9148   12.5465 C   0  0  2  0  0  0  0  0  0  0  0  0
   45.0868   -5.1125   12.3284 C   0  0  2  0  0  0  0  0  0  0  0  0
   44.8563   -1.3705   12.4705 C   0  0  0  0  0  0  0  0  0  0  0  0
   44.3698   -3.8746   12.2546 C   0  0  0  0  0  0  0  0  0  0  0  0
   44.0562   -6.3118   12.0933 C   0  0  0  0  0  0  0  0  0  0  0  0
   42.7704   -6.1294   12.3637 O   0  0  0  0  0  0  0  0  0  0  0  0
  1  2  1  0
  1  3  1  0
  2  4  1  0
  3  5  1  0
  4  6  1  0
  5  6  1  0
  5  7  1  0
  7  8  1  0
  7  9  1  1
 10  8  1  6
 10 11  1  0
 11 12  1  1
 10 13  1  0
 12 14  1  0
 11 15  1  0
 14 16  1  0
 13 17  1  0
 15 17  1  1
 15 18  1  0
 16 18  1  0
 16 19  1  1
 19 20  1  0
M  END
$$$$
84
     RDKit          3D

 20 23  0  0  0  0  0  0  0  0999 V2000
   42.9080    1.3228   18.0138 N   0  0  0  0  0  0  0  0  0  0  0  0
   43.9832    1.7227   18.3926 C   0  0  0  0  0  0  0  0  0  0  0  0
   42.8695    0.3948   17.0033 C   0  0  0  0  0  0  0  0  0  0  0  0
   44.2236    0.0273   16.6850 C   0  0  1  0  0  0  0  0  0  0  0  0
   45.0955    0.9716   17.8637 C   0  0  0  0  0  0  0  0  0  0  0  0
   46.4468    0.8102   17.9674 C   0  0  0  0  0  0  0  0  0  0  0  0
   45.0317   -0.7375   15.9757 C   0  0  1  0  0  0  0  0  0  0  0  0
   46.3447   -1.0186   16.1627 C   0  0  2  0  0  0  0  0  0  0  0  0
   46.9785   -2.0105   15.3495 C   0  0  0  0  0  0  0  0  0  0  0  0
   44.1733   -1.4584   14.8135 C   0  0  0  0  0  0  0  0  0  0  0  0
   46.2879   -2.5680   14.2346 C   0  0  2  0  0  0  0  0  0  0  0  0
   47.0205   -0.3387   17.3611 C   0  0  0  0  0  0  0  0  0  0  0  0
   44.9546   -2.3011   13.9930 C   0  0  1  0  0  0  0  0  0  0  0  0
   47.0333   -3.5596   13.3631 C   0  0  0  0  0  0  0  0  0  0  0  0
   46.0948   -4.4156   12.5613 C   0  0  0  0  0  0  0  0  0  0  0  0
   44.1792   -2.9777   12.9698 C   0  0  0  0  0  0  0  0  0  0  0  0
   44.7623   -4.1665   12.2303 C   0  0  2  0  0  0  0  0  0  0  0  0
   43.9499   -5.2315   12.0838 C   0  0  1  0  0  0  0  0  0  0  0  0
   44.3389   -6.3344   11.4813 O   0  0  0  0  0  0  0  0  0  0  0  0
   43.1948   -5.6409   13.3432 C   0  0  0  0  0  0  0  0  0  0  0  0
  1  2  1  0
  1  3  1  0
  4  3  1  1
  2  5  1  0
  4  5  1  0
  5  6  1  0
  4  7  1  0
  7  8  1  0
  8  9  1  1
  7 10  1  1
 11  9  1  1
  6 12  1  0
  8 12  1  0
 13 10  1  1
 11 13  1  0
 11 14  1  0
 14 15  1  0
 13 16  1  0
 17 15  1  1
 16 17  1  0
 17 18  1  0
 18 19  1  0
 18 20  1  1
M  END
$$$$
85
     RDKit          3D

 20 20  0  0  0  0  0  0  0  0999 V2000
   44.5604    1.5799   18.8503 C   0  0  0  0  0  0  0  0  0  0  0  0
   43.2812    1.5169   18.3363 C   0  0  0  0  0  0  0  0  0  0  0  0
   45.6086    0.8095   18.2740 C   0  0  0  0  0  0  0  0  0  0  0  0
   43.1444    0.5989   17.1502 C   0  0  0  0  0  0  0  0  0  0  0  0
   45.1257   -0.0328   17.2768 C   0  0  0  0  0  0  0  0  0  0  0  0
   44.0119   -0.0888   16.7208 C   0  0  0  0  0  0  0  0  0  0  0  0
   46.3008   -0.8390   16.6090 C   0  0  2  0  0  0  0  0  0  0  0  0
   46.2064   -0.9705   15.2572 O   0  0  0  0  0  0  0  0  0  0  0  0
   46.4132   -2.1580   17.2192 O   0  0  0  0  0  0  0  0  0  0  0  0
   45.2809   -1.8331   14.7396 C   0  0  2  0  0  0  0  0  0  0  0  0
   45.8860   -2.9987   13.9000 C   0  0  0  0  0  0  0  0  0  0  0  0
   45.5779   -4.2281   14.4351 N   0  0  0  0  0  0  0  0  0  0  0  0
   44.3523   -1.1977   13.7337 C   0  0  0  0  0  0  0  0  0  0  0  0
   45.5733   -5.3686   13.4803 C   0  0  0  0  0  0  0  0  0  0  0  0
   44.8294    0.0634   13.2499 C   0  0  0  0  0  0  0  0  0  0  0  0
   44.2757   -5.3629   12.7336 C   0  0  0  0  0  0  0  0  0  0  0  0
   43.9220   -6.3878   11.8759 C   0  0  0  0  0  0  0  0  0  0  0  0
   44.7719   -7.4339   11.6993 O   0  0  0  0  0  0  0  0  0  0  0  0
   45.1549   -0.1518   11.7841 C   0  0  0  0  0  0  0  0  0  0  0  0
   43.9291   -0.6215   11.2168 C   0  0  0  0  0  0  0  0  0  0  0  0
  1  2  1  0
  1  3  1  0
  2  4  1  0
  3  5  1  0
  4  6  1  0
  5  6  1  0
  5  7  1  0
  7  8  1  0
  7  9  1  1
  8 10  1  0
 10 11  1  6
 11 12  1  0
 10 13  1  0
 12 14  1  0
 13 15  1  0
 14 16  1  0
 16 17  1  0
 17 18  1  0
 15 19  1  0
 19 20  1  0
M  END
$$$$
86
     RDKit          3D

 20 22  0  0  0  0  0  0  0  0999 V2000
   42.6956    1.1982   17.6432 N   0  0  0  0  0  0  0  0  0  0  0  0
   43.5899    0.4685   17.1413 C   0  0  1  0  0  0  0  0  0  0  0  0
   44.7723    0.2992   17.9868 C   0  0  1  0  0  0  0  0  0  0  0  0
   44.8758    0.7980   19.2349 C   0  0  0  0  0  0  0  0  0  0  0  0
   43.4696   -0.2101   15.8891 N   0  0  0  0  0  0  0  0  0  0  0  0
   45.8995   -0.5512   17.6411 C   0  0  0  0  0  0  0  0  0  0  0  0
   43.8715    1.7200   19.5787 C   0  0  0  0  0  0  0  0  0  0  0  0
   45.7225   -1.1623   16.2300 C   0  0  1  0  0  0  0  0  0  0  0  0
   44.5536   -0.8993   15.4889 C   0  0  0  0  0  0  0  0  0  0  0  0
   46.8182   -1.7551   15.5244 C   0  0  0  0  0  0  0  0  0  0  0  0
   44.5049   -1.4947   14.0708 C   0  0  0  0  0  0  0  0  0  0  0  0
   42.7369    1.9381   18.8095 C   0  0  0  0  0  0  0  0  0  0  0  0
   46.7059   -2.3251   14.3249 C   0  0  0  0  0  0  0  0  0  0  0  0
   45.6281   -2.0902   13.5685 C   0  0  1  0  0  0  0  0  0  0  0  0
   45.6249   -2.7333   12.1170 C   0  0  0  0  0  0  0  0  0  0  0  0
   44.8727   -4.0583   12.1906 C   0  0  0  0  0  0  0  0  0  0  0  0
   44.8885   -4.9311   13.2572 C   0  0  0  0  0  0  0  0  0  0  0  0
   44.1917   -6.2400   13.0181 N   0  0  0  0  0  0  0  0  0  0  0  0
   44.9043   -7.2379   12.5278 C   0  0  0  0  0  0  0  0  0  0  0  0
   42.8106   -6.1808   12.7719 C   0  0  0  0  0  0  0  0  0  0  0  0
  2  1  1  1
  2  3  1  0
  3  4  1  1
  2  5  1  0
  3  6  1  0
  4  7  1  0
  8  6  1  6
  5  9  1  0
  8  9  1  0
  8 10  1  0
  9 11  1  0
  1 12  1  0
  7 12  1  0
 10 13  1  0
 11 14  1  0
 13 14  1  0
 14 15  1  1
 15 16  1  0
 16 17  1  0
 17 18  1  0
 18 19  1  0
 18 20  1  0
M  END
$$$$
87
     RDKit          3D

 20 22  0  0  0  0  0  0  0  0999 V2000
   45.5654   -5.9514   13.5958 C   0  0  0  0  0  0  0  0  0  0  0  0
   44.5629   -6.0536   12.5887 C   0  0  0  0  0  0  0  0  0  0  0  0
   44.0791   -4.8353   12.0497 C   0  0  0  0  0  0  0  0  0  0  0  0
   43.9887   -7.1862   12.0746 C   0  0  0  0  0  0  0  0  0  0  0  0
   42.7627   -7.2256   11.3694 C   0  0  0  0  0  0  0  0  0  0  0  0
   44.7878   -3.6396   12.5978 C   0  0  1  0  0  0  0  0  0  0  0  0
   46.1088   -4.8224   14.0568 C   0  0  0  0  0  0  0  0  0  0  0  0
   45.6589   -3.6080   13.5389 C   0  0  1  0  0  0  0  0  0  0  0  0
   46.2999   -2.2810   14.0615 C   0  0  1  0  0  0  0  0  0  0  0  0
   45.5633   -1.1564   13.6630 C   0  0  1  0  0  0  0  0  0  0  0  0
   44.4142   -2.3169   11.7802 C   0  0  0  0  0  0  0  0  0  0  0  0
   44.7850   -1.0972   12.4638 C   0  0  2  0  0  0  0  0  0  0  0  0
   44.5895   -0.6750   14.8989 C   0  0  0  0  0  0  0  0  0  0  0  0
   44.4087    0.1315   11.8492 C   0  0  0  0  0  0  0  0  0  0  0  0
   45.2976   -0.6884   16.2545 N   0  0  0  0  0  0  0  0  0  0  0  0
   46.4297   -1.0735   16.5533 C   0  0  0  0  0  0  0  0  0  0  0  0
   44.3300   -0.4214   17.3096 C   0  0  0  0  0  0  0  0  0  0  0  0
   44.2175    1.0549   17.6779 C   0  0  0  0  0  0  0  0  0  0  0  0
   43.2432    1.3486   18.6955 C   0  0  0  0  0  0  0  0  0  0  0  0
   47.0207   -1.9181   15.3825 C   0  0  0  0  0  0  0  0  0  0  0  0
  1  2  1  0
  2  3  1  0
  2  4  1  0
  4  5  1  0
  6  3  1  6
  1  7  1  0
  6  8  1  0
  8  7  1  6
  8  9  1  0
  9 10  1  0
  6 11  1  0
 10 12  1  0
 11 12  1  0
 10 13  1  1
 12 14  1  6
 13 15  1  0
 15 16  1  0
 15 17  1  0
 17 18  1  0
 18 19  1  0
  9 20  1  1
 16 20  1  0
M  END
$$$$
88
     RDKit          3D

 20 23  0  0  0  0  0  0  0  0999 V2000
   42.6956    1.1982   17.6432 N   0  0  0  0  0  0  0  0  0  0  0  0
   43.5899    0.4685   17.1413 C   0  0  1  0  0  0  0  0  0  0  0  0
   44.7723    0.2992   17.9868 C   0  0  1  0  0  0  0  0  0  0  0  0
   44.8758    0.7980   19.2349 C   0  0  0  0  0  0  0  0  0  0  0  0
   43.4696   -0.2101   15.8891 N   0  0  0  0  0  0  0  0  0  0  0  0
   45.8995   -0.5512   17.6411 C   0  0  0  0  0  0  0  0  0  0  0  0
   43.8715    1.7200   19.5787 C   0  0  0  0  0  0  0  0  0  0  0  0
   45.7225   -1.1623   16.2300 C   0  0  0  0  0  0  0  0  0  0  0  0
   42.7488    1.9306   18.7924 C   0  0  0  0  0  0  0  0  0  0  0  0
   44.5600   -0.9458   15.4886 C   0  0  0  0  0  0  0  0  0  0  0  0
   44.4719   -1.5954   14.1821 C   0  0  0  0  0  0  0  0  0  0  0  0
   46.8101   -1.9518   15.7077 C   0  0  0  0  0  0  0  0  0  0  0  0
   46.6457   -2.5117   14.5768 C   0  0  0  0  0  0  0  0  0  0  0  0
   45.5182   -2.3969   13.8249 C   0  0  2  0  0  0  0  0  0  0  0  0
   45.5104   -3.0912   12.4219 C   0  0  0  0  0  0  0  0  0  0  0  0
   44.9919   -4.4928   12.6465 C   0  0  2  0  0  0  0  0  0  0  0  0
   43.7634   -4.8154   12.1309 C   0  0  0  0  0  0  0  0  0  0  0  0
   45.0758   -5.2070   13.9636 N   0  0  0  0  0  0  0  0  0  0  0  0
   43.3840   -6.1159   12.6812 C   0  0  0  0  0  0  0  0  0  0  0  0
   44.5372   -6.4861   13.2344 C   0  0  0  0  0  0  0  0  0  0  0  0
  2  1  1  1
  2  3  1  0
  3  4  1  1
  2  5  1  0
  3  6  1  0
  4  7  1  0
  6  8  1  0
  1  9  1  0
  7  9  1  0
  5 10  1  0
  8 10  1  0
 10 11  1  0
  8 12  1  0
 12 13  1  0
 11 14  1  0
 13 14  1  0
 14 15  1  6
 16 15  1  1
 16 17  1  0
 16 18  1  0
 17 19  1  0
 18 20  1  0
 19 20  1  0
M  END
$$$$
89
     RDKit          3D

 20 22  0  0  0  0  0  0  0  0999 V2000
   43.4362    0.9801   18.3618 C   0  0  0  0  0  0  0  0  0  0  0  0
   44.6781    0.5296   18.0170 C   0  0  2  0  0  0  0  0  0  0  0  0
   42.6665    1.1827   17.2593 N   0  0  0  0  0  0  0  0  0  0  0  0
   43.0641    0.4119   16.2680 N   0  0  0  0  0  0  0  0  0  0  0  0
   44.4016    0.0899   16.6478 C   0  0  0  0  0  0  0  0  0  0  0  0
   45.4956   -0.6018   15.9233 C   0  0  2  0  0  0  0  0  0  0  0  0
   45.1064   -1.3808   14.8004 C   0  0  0  0  0  0  0  0  0  0  0  0
   46.5881   -1.1334   16.6998 C   0  0  0  0  0  0  0  0  0  0  0  0
   44.6328   -0.8749   13.5466 C   0  0  1  0  0  0  0  0  0  0  0  0
   44.9043    0.4038   13.2159 C   0  0  0  0  0  0  0  0  0  0  0  0
   46.0610   -1.7631   17.9946 C   0  0  0  0  0  0  0  0  0  0  0  0
   44.2346   -1.9497   12.6095 C   0  0  2  0  0  0  0  0  0  0  0  0
   45.5794   -0.3684   18.8411 C   0  0  0  0  0  0  0  0  0  0  0  0
   44.4870    0.7225   11.7637 C   0  0  0  0  0  0  0  0  0  0  0  0
   44.2250   -3.3710   13.0152 C   0  0  0  0  0  0  0  0  0  0  0  0
   45.3163   -4.1998   12.9310 C   0  0  0  0  0  0  0  0  0  0  0  0
   45.1229   -5.6371   13.1226 C   0  0  0  0  0  0  0  0  0  0  0  0
   43.8005   -6.0774   12.6499 C   0  0  0  0  0  0  0  0  0  0  0  0
   44.0889   -0.3965   11.1808 C   0  0  0  0  0  0  0  0  0  0  0  0
   44.0383   -1.6355   11.3930 C   0  0  0  0  0  0  0  0  0  0  0  0
  2  1  1  1
  1  3  1  0
  3  4  1  0
  2  5  1  0
  4  5  1  0
  5  6  1  0
  6  7  1  1
  6  8  1  0
  9  7  1  6
  9 10  1  0
  8 11  1  0
  9 12  1  0
  2 13  1  0
 11 13  1  0
 10 14  1  0
 12 15  1  6
 15 16  1  0
 16 17  1  0
 17 18  1  0
 14 19  1  0
 12 20  1  0
 19 20  1  0
M  END
$$$$
9
     RDKit          3D

 15 16  0  0  0  0  0  0  0  0999 V2000
   43.9042    1.6019   18.5628 C   0  0  0  0  0  0  0  0  0  0  0  0
   45.0790    0.9529   18.2449 C   0  0  0  0  0  0  0  0  0  0  0  0
   42.7841    1.1368   17.7770 C   0  0  0  0  0  0  0  0  0  0  0  0
   43.3638    0.2398   16.7389 C   0  0  0  0  0  0  0  0  0  0  0  0
   44.7330    0.1047   17.0684 C   0  0  0  0  0  0  0  0  0  0  0  0
   45.6320   -0.5966   16.2233 C   0  0  2  0  0  0  0  0  0  0  0  0
   45.4461   -0.7286   14.8663 N   0  0  0  0  0  0  0  0  0  0  0  0
   46.7174   -1.2724   16.7743 C   0  0  0  0  0  0  0  0  0  0  0  0
   47.2662   -2.0515   15.7229 C   0  0  0  0  0  0  0  0  0  0  0  0
   44.4913   -0.1731   13.9866 C   0  0  0  0  0  0  0  0  0  0  0  0
   46.3843   -1.9043   14.5447 C   0  0  0  0  0  0  0  0  0  0  0  0
   46.5336   -2.2386   13.4428 O   0  0  0  0  0  0  0  0  0  0  0  0
   45.0715    0.2504   12.7674 C   0  0  0  0  0  0  0  0  0  0  0  0
   44.8760   -0.4525   11.6327 C   0  0  0  0  0  0  0  0  0  0  0  0
   44.0511   -1.6392   11.7948 O   0  0  0  0  0  0  0  0  0  0  0  0
  1  2  1  0
  1  3  1  0
  3  4  1  0
  2  5  1  0
  4  5  1  0
  6  5  1  1
  6  7  1  0
  6  8  1  0
  8  9  1  0
  7 10  1  0
  7 11  1  0
  9 11  1  0
 11 12  2  0
 10 13  1  0
 13 14  1  0
 14 15  1  0
M  END
$$$$
90
     RDKit          3D

 20 22  0  0  0  0  0  0  0  0999 V2000
   42.9062    0.9397   17.6172 C   0  0  0  0  0  0  0  0  0  0  0  0
   43.5291    0.1454   16.8472 C   0  0  0  0  0  0  0  0  0  0  0  0
   44.8988    0.0753   17.1283 C   0  0  0  0  0  0  0  0  0  0  0  0
   43.4017    1.7367   18.6536 C   0  0  0  0  0  0  0  0  0  0  0  0
   44.7162    1.6417   18.9546 C   0  0  0  0  0  0  0  0  0  0  0  0
   45.5017    0.7802   18.1567 C   0  0  0  0  0  0  0  0  0  0  0  0
   45.8329   -0.8243   16.3817 C   0  0  0  0  0  0  0  0  0  0  0  0
   46.6036   -1.6734   17.0094 O   0  0  0  0  0  0  0  0  0  0  0  0
   46.0658   -0.6455   15.0518 N   0  0  0  0  0  0  0  0  0  0  0  0
   46.6973   -1.5659   14.2201 C   0  0  0  0  0  0  0  0  0  0  0  0
   45.3027    0.3396   14.2970 C   0  0  0  0  0  0  0  0  0  0  0  0
   44.8876   -0.1905   12.9303 C   0  0  0  0  0  0  0  0  0  0  0  0
   45.8444   -1.5525   12.9351 C   0  0  2  0  0  0  0  0  0  0  0  0
   45.1742   -2.6979   12.5008 C   0  0  0  0  0  0  0  0  0  0  0  0
   45.9220   -3.8159   12.1681 C   0  0  0  0  0  0  0  0  0  0  0  0
   45.0965   -5.0847   12.0537 C   0  0  0  0  0  0  0  0  0  0  0  0
   43.7644   -4.9365   12.4213 C   0  0  0  0  0  0  0  0  0  0  0  0
   43.7482   -2.8587   12.8459 C   0  0  0  0  0  0  0  0  0  0  0  0
   43.1728   -3.9372   12.7644 C   0  0  0  0  0  0  0  0  0  0  0  0
   43.2194   -6.5027   12.3173 C   0  0  0  0  0  0  0  0  0  0  0  0
  1  2  1  0
  2  3  1  0
  1  4  1  0
  4  5  1  0
  3  6  1  0
  5  6  1  0
  3  7  1  0
  7  8  2  0
  7  9  1  0
  9 10  1  0
  9 11  1  0
 11 12  1  0
 10 13  1  0
 12 13  1  0
 13 14  1  1
 14 15  1  0
 15 16  1  0
 16 17  1  0
 14 18  1  0
 17 19  1  0
 18 19  1  0
 17 20  1  0
M  END
$$$$
91
     RDKit          3D

 20 23  0  0  0  0  0  0  0  0999 V2000
   44.0044   -6.1162   13.0890 N   0  0  0  0  0  0  0  0  0  0  0  0
   44.5976   -5.0302   13.5082 C   0  0  0  0  0  0  0  0  0  0  0  0
   44.6552   -3.7997   12.9893 C   0  0  2  0  0  0  0  0  0  0  0  0
   44.4527   -3.7670   11.6095 C   0  0  2  0  0  0  0  0  0  0  0  0
   45.2786   -2.5012   13.5806 C   0  0  2  0  0  0  0  0  0  0  0  0
   44.7397   -2.4297   10.9498 C   0  0  0  0  0  0  0  0  0  0  0  0
   44.8632   -1.2721   11.6942 C   0  0  2  0  0  0  0  0  0  0  0  0
   45.5099   -2.7325   15.0952 N   0  0  0  0  0  0  0  0  0  0  0  0
   43.7219   -6.0153   11.6894 C   0  0  0  0  0  0  0  0  0  0  0  0
   44.9312   -1.3061   13.1986 C   0  0  2  0  0  0  0  0  0  0  0  0
   43.8929   -4.8473   11.0597 C   0  0  0  0  0  0  0  0  0  0  0  0
   45.6894   -1.5875   15.8259 C   0  0  1  0  0  0  0  0  0  0  0  0
   44.7808    0.1960   10.9423 Cl  0  0  0  0  0  0  0  0  0  0  0  0
   44.9359   -0.4871   15.5200 C   0  0  1  0  0  0  0  0  0  0  0  0
   44.8310    0.5264   16.4287 C   0  0  0  0  0  0  0  0  0  0  0  0
   44.7340   -0.2569   14.0564 C   0  0  0  0  0  0  0  0  0  0  0  0
   45.5549    0.3875   17.6106 C   0  0  2  0  0  0  0  0  0  0  0  0
   46.4768   -1.7138   17.0306 C   0  0  0  0  0  0  0  0  0  0  0  0
   46.2682   -0.6192   17.9707 C   0  0  0  0  0  0  0  0  0  0  0  0
   45.4014    1.7578   18.7714 Cl  0  0  0  0  0  0  0  0  0  0  0  0
  1  2  1  0
  3  2  1  6
  3  4  1  0
  3  5  1  0
  4  6  1  1
  6  7  1  0
  5  8  1  1
  1  9  1  0
  5 10  1  0
  7 10  1  0
  4 11  1  0
  9 11  1  0
  8 12  1  0
  7 13  1  1
 12 14  1  0
 14 15  1  6
 10 16  1  6
 14 16  1  0
 15 17  1  0
 12 18  1  1
 17 19  1  0
 18 19  1  0
 17 20  1  1
M  END
$$$$
92
     RDKit          3D

 20 22  0  0  0  0  0  0  0  0999 V2000
   45.5654   -5.9514   13.5958 C   0  0  0  0  0  0  0  0  0  0  0  0
   45.7909   -4.7104   13.7455 C   0  0  2  0  0  0  0  0  0  0  0  0
   44.6215   -6.3912   12.5557 C   0  0  0  0  0  0  0  0  0  0  0  0
   46.5263   -4.0636   14.7071 C   0  0  0  0  0  0  0  0  0  0  0  0
   43.9697   -5.4749   11.6732 C   0  0  0  0  0  0  0  0  0  0  0  0
   45.0865   -3.6104   12.7465 C   0  0  1  0  0  0  0  0  0  0  0  0
   44.1398   -4.1371   11.8651 C   0  0  0  0  0  0  0  0  0  0  0  0
   46.6456   -2.5974   14.7459 C   0  0  2  0  0  0  0  0  0  0  0  0
   47.2779   -1.9647   15.8433 C   0  0  0  0  0  0  0  0  0  0  0  0
   46.1673   -1.4205   16.8032 N   0  0  0  0  0  0  0  0  0  0  0  0
   45.4381   -2.2727   13.0939 C   0  0  2  0  0  0  0  0  0  0  0  0
   44.3091   -1.5701   13.4571 C   0  0  0  0  0  0  0  0  0  0  0  0
   45.0874   -0.7488   16.5095 C   0  0  0  0  0  0  0  0  0  0  0  0
   46.4980   -1.4831   18.1984 C   0  0  0  0  0  0  0  0  0  0  0  0
   45.4594   -0.7090   18.9015 C   0  0  0  0  0  0  0  0  0  0  0  0
   44.5466   -0.1929   17.8184 C   0  0  1  0  0  0  0  0  0  0  0  0
   44.3958   -0.0856   13.0233 C   0  0  0  0  0  0  0  0  0  0  0  0
   44.4035    0.0449   11.6101 C   0  0  0  0  0  0  0  0  0  0  0  0
   43.4494    0.6838   17.9485 C   0  0  0  0  0  0  0  0  0  0  0  0
   42.6743    1.1827   18.1133 N   0  0  0  0  0  0  0  0  0  0  0  0
  2  1  1  1
  1  3  1  0
  2  4  1  0
  3  5  1  0
  2  6  1  0
  5  7  1  0
  6  7  1  1
  4  8  1  0
  8  9  1  1
  9 10  1  0
  6 11  1  0
  8 11  1  0
 11 12  1  1
 10 13  1  0
 10 14  1  0
 14 15  1  0
 13 16  1  0
 15 16  1  0
 12 17  1  0
 17 18  1  0
 16 19  1  6
 19 20  3  0
M  END
$$$$
93
     RDKit          3D

 20 21  0  0  0  0  0  0  0  0999 V2000
   44.5604    1.5799   18.8503 C   0  0  0  0  0  0  0  0  0  0  0  0
   43.2812    1.5169   18.3363 C   0  0  0  0  0  0  0  0  0  0  0  0
   45.4118    0.6491   18.1971 C   0  0  0  0  0  0  0  0  0  0  0  0
   45.0245   -0.0804   17.0190 C   0  0  0  0  0  0  0  0  0  0  0  0
   43.0083    0.7878   17.1193 C   0  0  0  0  0  0  0  0  0  0  0  0
   46.0565   -0.9300   16.4689 C   0  0  0  0  0  0  0  0  0  0  0  0
   46.6447   -1.7662   17.3421 O   0  0  0  0  0  0  0  0  0  0  0  0
   43.8227   -0.0033   16.5690 C   0  0  0  0  0  0  0  0  0  0  0  0
   45.9648   -1.2912   15.1646 N   0  0  0  0  0  0  0  0  0  0  0  0
   45.4763   -0.4203   14.3189 C   0  0  0  0  0  0  0  0  0  0  0  0
   46.1884   -2.7107   14.8190 C   0  0  2  0  0  0  0  0  0  0  0  0
   47.4410   -2.9816   14.3226 C   0  0  0  0  0  0  0  0  0  0  0  0
   45.1593   -3.2300   13.7919 C   0  0  2  0  0  0  0  0  0  0  0  0
   44.8441   -0.9297   13.1105 C   0  0  1  0  0  0  0  0  0  0  0  0
   45.4853   -4.6210   13.3088 C   0  0  0  0  0  0  0  0  0  0  0  0
   45.0123   -5.6606   14.1603 N   0  0  0  0  0  0  0  0  0  0  0  0
   45.6157   -4.8321   12.0784 O   0  0  0  0  0  0  0  0  0  0  0  0
   44.6616    0.0716   12.0880 C   0  0  0  0  0  0  0  0  0  0  0  0
   45.1375   -2.3535   12.6645 C   0  0  0  0  0  0  0  0  0  0  0  0
   43.6788   -0.5368   11.1134 F   0  0  0  0  0  0  0  0  0  0  0  0
  1  2  1  0
  1  3  1  0
  3  4  1  0
  2  5  1  0
  4  6  1  0
  6  7  2  0
  4  8  1  0
  5  8  1  0
  6  9  1  0
  9 10  1  0
  9 11  1  0
 11 12  1  6
 11 13  1  0
 10 14  1  0
 13 15  1  6
 15 16  1  0
 15 17  2  0
 14 18  1  6
 13 19  1  0
 14 19  1  0
 18 20  1  0
M  END
$$$$
94
     RDKit          3D

 20 22  0  0  0  0  0  0  0  0999 V2000
   43.4362    0.9801   18.3618 C   0  0  0  0  0  0  0  0  0  0  0  0
   44.6781    0.5296   18.0170 C   0  0  0  0  0  0  0  0  0  0  0  0
   42.4576    1.1496   17.3923 N   0  0  0  0  0  0  0  0  0  0  0  0
   45.7694    0.4273   18.8906 C   0  0  0  0  0  0  0  0  0  0  0  0
   46.9819   -0.2560   18.5773 C   0  0  0  0  0  0  0  0  0  0  0  0
   44.9445    0.1178   16.6445 C   0  0  1  0  0  0  0  0  0  0  0  0
   45.9534   -0.4542   16.4182 C   0  0  0  0  0  0  0  0  0  0  0  0
   47.0338   -0.7230   17.3104 C   0  0  0  0  0  0  0  0  0  0  0  0
   46.2493   -1.0336   14.8981 C   0  0  0  0  0  0  0  0  0  0  0  0
   43.7016    0.1414   15.9032 N   0  0  0  0  0  0  0  0  0  0  0  0
   42.5856    0.5601   16.2857 C   0  0  0  0  0  0  0  0  0  0  0  0
   46.2940   -2.4094   14.7680 N   0  0  0  0  0  0  0  0  0  0  0  0
   45.6435   -3.0425   13.9268 N   0  0  0  0  0  0  0  0  0  0  0  0
   44.5857   -2.5359   13.2435 C   0  0  0  0  0  0  0  0  0  0  0  0
   44.0707   -3.3807   12.1402 C   0  0  0  0  0  0  0  0  0  0  0  0
   44.6311   -4.7756   12.1557 C   0  0  0  0  0  0  0  0  0  0  0  0
   46.0336   -4.4684   14.0014 C   0  0  0  0  0  0  0  0  0  0  0  0
   43.8842   -5.6438   11.3670 C   0  0  0  0  0  0  0  0  0  0  0  0
   45.4684   -5.2893   13.0588 C   0  0  0  0  0  0  0  0  0  0  0  0
   44.3295   -7.0065   11.4036 N   0  0  0  0  0  0  0  0  0  0  0  0
  1  2  1  0
  1  3  1  0
  2  4  1  0
  4  5  1  0
  2  6  1  0
  6  7  1  0
  5  8  1  0
  7  8  1  0
  7  9  1  0
  6 10  1  1
  3 11  1  0
 10 11  1  0
  9 12  1  0
 12 13  1  0
 13 14  1  0
 14 15  1  0
 15 16  1  0
 13 17  1  0
 16 18  1  0
 16 19  1  0
 17 19  1  0
 18 20  1  0
M  END
$$$$
95
     RDKit          3D

 20 20  0  0  0  0  0  0  0  0999 V2000
   44.5604    1.5799   18.8503 C   0  0  0  0  0  0  0  0  0  0  0  0
   43.2812    1.5169   18.3363 C   0  0  0  0  0  0  0  0  0  0  0  0
   45.6086    0.8095   18.2740 C   0  0  0  0  0  0  0  0  0  0  0  0
   43.1444    0.5989   17.1502 C   0  0  0  0  0  0  0  0  0  0  0  0
   45.1257   -0.0328   17.2768 C   0  0  0  0  0  0  0  0  0  0  0  0
   44.0119   -0.0888   16.7208 C   0  0  0  0  0  0  0  0  0  0  0  0
   46.3008   -0.8390   16.6090 C   0  0  2  0  0  0  0  0  0  0  0  0
   46.2064   -0.9705   15.2572 O   0  0  0  0  0  0  0  0  0  0  0  0
   46.4132   -2.1580   17.2192 O   0  0  0  0  0  0  0  0  0  0  0  0
   45.2809   -1.8331   14.7396 C   0  0  2  0  0  0  0  0  0  0  0  0
   45.8860   -2.9987   13.9000 C   0  0  0  0  0  0  0  0  0  0  0  0
   45.5779   -4.2281   14.4351 N   0  0  0  0  0  0  0  0  0  0  0  0
   44.3523   -1.1977   13.7337 C   0  0  0  0  0  0  0  0  0  0  0  0
   45.5733   -5.3686   13.4803 C   0  0  0  0  0  0  0  0  0  0  0  0
   44.8294    0.0634   13.2499 C   0  0  0  0  0  0  0  0  0  0  0  0
   44.2757   -5.3629   12.7336 C   0  0  0  0  0  0  0  0  0  0  0  0
   43.9220   -6.3878   11.8759 C   0  0  0  0  0  0  0  0  0  0  0  0
   45.1635   -0.1414   11.7876 C   0  0  0  0  0  0  0  0  0  0  0  0
   43.9484   -0.5172   11.0563 C   0  0  0  0  0  0  0  0  0  0  0  0
   42.6008   -6.8822   11.8900 C   0  0  0  0  0  0  0  0  0  0  0  0
  1  2  1  0
  1  3  1  0
  2  4  1  0
  3  5  1  0
  4  6  1  0
  5  6  1  0
  5  7  1  0
  7  8  1  0
  7  9  1  1
  8 10  1  0
 10 11  1  6
 11 12  1  0
 10 13  1  0
 12 14  1  0
 13 15  1  0
 14 16  1  0
 16 17  1  0
 15 18  1  0
 18 19  1  0
 17 20  1  0
M  END
$$$$
96
     RDKit          3D

 20 20  0  0  0  0  0  0  0  0999 V2000
   42.6853   -6.5012   12.1148 C   0  0  0  0  0  0  0  0  0  0  0  0
   43.8477   -6.0998   12.0288 C   0  0  0  0  0  0  0  0  0  0  0  0
   44.3660   -5.5212   13.1154 N   0  0  0  0  0  0  0  0  0  0  0  0
   44.4215   -4.1873   13.3088 C   0  0  0  0  0  0  0  0  0  0  0  0
   45.5620   -3.5017   13.8601 C   0  0  0  0  0  0  0  0  0  0  0  0
   45.5559   -2.0156   13.9765 C   0  0  1  0  0  0  0  0  0  0  0  0
   44.9296   -1.3449   12.8791 C   0  0  0  0  0  0  0  0  0  0  0  0
   46.0260   -1.2660   15.0493 C   0  0  0  0  0  0  0  0  0  0  0  0
   44.7967    0.0520   12.8319 C   0  0  1  0  0  0  0  0  0  0  0  0
   46.7025   -1.9429   16.1978 C   0  0  0  0  0  0  0  0  0  0  0  0
   46.0569   -1.9167   17.4656 N   0  0  0  0  0  0  0  0  0  0  0  0
   44.1853    0.7390   11.7010 F   0  0  0  0  0  0  0  0  0  0  0  0
   45.8367    0.1354   15.1057 C   0  0  0  0  0  0  0  0  0  0  0  0
   45.2126    0.7181   13.9897 C   0  0  0  0  0  0  0  0  0  0  0  0
   46.3908   -1.1107   18.4808 C   0  0  0  0  0  0  0  0  0  0  0  0
   47.4280   -1.1482   18.9691 O   0  0  0  0  0  0  0  0  0  0  0  0
   45.2509   -0.4366   19.0586 C   0  0  0  0  0  0  0  0  0  0  0  0
   44.8567    0.8409   18.2705 C   0  0  0  0  0  0  0  0  0  0  0  0
   43.5028    1.2907   18.3623 C   0  0  0  0  0  0  0  0  0  0  0  0
   42.6056    1.4513   17.6916 N   0  0  0  0  0  0  0  0  0  0  0  0
  1  2  1  0
  2  3  1  0
  3  4  1  0
  4  5  1  0
  6  5  1  1
  6  7  1  0
  6  8  1  0
  7  9  1  0
  8 10  1  0
 10 11  1  0
  9 12  1  1
  8 13  1  0
  9 14  1  0
 13 14  1  0
 11 15  1  0
 15 16  2  0
 15 17  1  0
 17 18  1  0
 18 19  1  0
 19 20  2  0
M  END
$$$$
97
     RDKit          3D

 20 21  0  0  0  0  0  0  0  0999 V2000
   43.4362    0.9801   18.3618 C   0  0  0  0  0  0  0  0  0  0  0  0
   44.6781    0.5296   18.0170 C   0  0  0  0  0  0  0  0  0  0  0  0
   42.4576    1.1496   17.3923 N   0  0  0  0  0  0  0  0  0  0  0  0
   45.7694    0.4273   18.8906 C   0  0  0  0  0  0  0  0  0  0  0  0
   46.9819   -0.2560   18.5773 C   0  0  0  0  0  0  0  0  0  0  0  0
   44.9445    0.1178   16.6445 C   0  0  1  0  0  0  0  0  0  0  0  0
   45.9534   -0.4542   16.4182 C   0  0  0  0  0  0  0  0  0  0  0  0
   47.0338   -0.7230   17.3104 C   0  0  0  0  0  0  0  0  0  0  0  0
   46.2493   -1.0336   14.8981 C   0  0  0  0  0  0  0  0  0  0  0  0
   43.7016    0.1414   15.9032 N   0  0  0  0  0  0  0  0  0  0  0  0
   42.5856    0.5601   16.2857 C   0  0  0  0  0  0  0  0  0  0  0  0
   46.2940   -2.4094   14.7680 C   0  0  0  0  0  0  0  0  0  0  0  0
   45.1263   -3.0467   14.1033 C   0  0  2  0  0  0  0  0  0  0  0  0
   45.2857   -4.4493   13.7025 C   0  0  0  0  0  0  0  0  0  0  0  0
   44.2288   -2.2732   13.2764 C   0  0  0  0  0  0  0  0  0  0  0  0
   44.9980   -1.8087   11.9926 C   0  0  0  0  0  0  0  0  0  0  0  0
   44.3357   -0.6207   11.4094 C   0  0  0  0  0  0  0  0  0  0  0  0
   44.1250   -5.1760   13.2478 N   0  0  0  0  0  0  0  0  0  0  0  0
   44.0447   -6.4434   12.9011 C   0  0  0  0  0  0  0  0  0  0  0  0
   42.7414   -6.7788   12.2828 C   0  0  0  0  0  0  0  0  0  0  0  0
  1  2  1  0
  1  3  1  0
  2  4  1  0
  4  5  1  0
  2  6  1  0
  6  7  1  0
  5  8  1  0
  7  8  1  0
  7  9  1  0
  6 10  1  1
  3 11  1  0
 10 11  1  0
  9 12  1  0
 13 12  1  6
 13 14  1  0
 13 15  1  0
 15 16  1  0
 16 17  1  0
 14 18  1  0
 18 19  1  0
 19 20  1  0
M  END
$$$$
98
     RDKit          3D

 20 22  0  0  0  0  0  0  0  0999 V2000
   42.5168    1.3863   17.9318 N   0  0  0  0  0  0  0  0  0  0  0  0
   43.4269    0.6962   17.3707 C   0  0  2  0  0  0  0  0  0  0  0  0
   44.6439    0.4042   18.0709 C   0  0  2  0  0  0  0  0  0  0  0  0
   43.3499    0.4686   16.0294 N   0  0  0  0  0  0  0  0  0  0  0  0
   45.5659   -0.2991   17.3051 C   0  0  0  0  0  0  0  0  0  0  0  0
   44.5169   -0.2514   15.6015 C   0  0  2  0  0  0  0  0  0  0  0  0
   45.4864   -0.5296   16.2723 N   0  0  0  0  0  0  0  0  0  0  0  0
   44.6712   -0.6393   14.1573 C   0  0  1  0  0  0  0  0  0  0  0  0
   46.7154   -0.6344   18.3268 C   0  0  0  0  0  0  0  0  0  0  0  0
   44.7155   -1.9998   13.8158 C   0  0  0  0  0  0  0  0  0  0  0  0
   46.5896   -0.2862   19.6033 C   0  0  0  0  0  0  0  0  0  0  0  0
   44.6539    0.2998   13.1703 C   0  0  0  0  0  0  0  0  0  0  0  0
   44.8131    0.6839   19.4920 C   0  0  0  0  0  0  0  0  0  0  0  0
   44.7795   -2.4335   12.5205 C   0  0  1  0  0  0  0  0  0  0  0  0
   44.7831   -3.9332   12.2423 C   0  0  0  0  0  0  0  0  0  0  0  0
   44.6855   -1.5115   11.4931 C   0  0  0  0  0  0  0  0  0  0  0  0
   45.9190   -4.5292   12.1677 F   0  0  0  0  0  0  0  0  0  0  0  0
   44.6598   -0.2205   11.7277 C   0  0  0  0  0  0  0  0  0  0  0  0
   44.1455   -4.1899   11.0973 F   0  0  0  0  0  0  0  0  0  0  0  0
   44.2024   -4.7057   13.3379 F   0  0  0  0  0  0  0  0  0  0  0  0
  2  1  1  6
  2  3  1  0
  2  4  1  0
  3  5  1  0
  6  4  1  6
  5  7  1  0
  6  7  1  0
  6  8  1  0
  5  9  1  0
  8 10  1  6
  9 11  1  0
  8 12  1  0
  3 13  1  1
 11 13  1  0
 10 14  1  0
 14 15  1  6
 14 16  1  0
 15 17  1  0
 12 18  1  0
 16 18  1  0
 15 19  1  0
 15 20  1  0
M  END
$$$$
99
     RDKit          3D

 20 22  0  0  0  0  0  0  0  0999 V2000
   46.9756   -3.1603   14.3610 C   0  0  0  0  0  0  0  0  0  0  0  0
   46.1787   -2.2103   14.9665 N   0  0  0  0  0  0  0  0  0  0  0  0
   46.1844   -4.1274   13.5269 C   0  0  1  0  0  0  0  0  0  0  0  0
   46.5952   -1.3793   15.9428 C   0  0  0  0  0  0  0  0  0  0  0  0
   45.4629   -1.4718   13.8169 C   0  0  2  0  0  0  0  0  0  0  0  0
   44.7197   -2.4589   12.9185 C   0  0  0  0  0  0  0  0  0  0  0  0
   45.1095   -4.7646   14.2939 N   0  0  0  0  0  0  0  0  0  0  0  0
   45.6365   -0.2381   15.9968 C   0  0  1  0  0  0  0  0  0  0  0  0
   45.5302   -3.4585   12.3437 C   0  0  1  0  0  0  0  0  0  0  0  0
   46.4215   -0.6067   13.0574 C   0  0  0  0  0  0  0  0  0  0  0  0
   44.6962   -0.4750   14.8438 C   0  0  0  0  0  0  0  0  0  0  0  0
   45.3054    0.4357   17.2291 C   0  0  0  0  0  0  0  0  0  0  0  0
   43.9554    0.8015   17.5628 C   0  0  0  0  0  0  0  0  0  0  0  0
   43.7278    1.7028   18.5390 C   0  0  0  0  0  0  0  0  0  0  0  0
   46.5300   -2.7882   11.3709 C   0  0  0  0  0  0  0  0  0  0  0  0
   47.0981   -1.5511   11.9473 C   0  0  0  0  0  0  0  0  0  0  0  0
   44.5080   -5.9152   13.4945 C   0  0  0  0  0  0  0  0  0  0  0  0
   45.2227   -6.8792   13.0575 O   0  0  0  0  0  0  0  0  0  0  0  0
   43.1745   -5.8276   13.0643 N   0  0  0  0  0  0  0  0  0  0  0  0
   42.6464   -6.2450   11.8297 C   0  0  0  0  0  0  0  0  0  0  0  0
  1  2  1  0
  1  3  1  0
  2  4  1  0
  2  5  1  0
  5  6  1  0
  3  7  1  1
  4  8  1  0
  3  9  1  0
  6  9  1  0
  5 10  1  6
  5 11  1  0
  8 11  1  0
  8 12  1  1
 12 13  1  0
 13 14  1  0
  9 15  1  6
 10 16  1  0
 15 16  1  0
  7 17  1  0
 17 18  2  0
 17 19  1  0
 19 20  1  0
M  END
$$$$
