0
     RDKit          3D

 10 10  0  0  0  0  0  0  0  0999 V2000
   23.0547    5.7416   13.5817 O   0  0  0  0  0  0  0  0  0  0  0  0
   22.9015    7.0706   13.1531 C   0  0  1  0  0  0  0  0  0  0  0  0
   21.7604    7.7161   12.9005 C   0  0  0  0  0  0  0  0  0  0  0  0
   21.9876    8.9910   12.3453 C   0  0  0  0  0  0  0  0  0  0  0  0
   23.1785    9.6936   12.5664 C   0  0  1  0  0  0  0  0  0  0  0  0
   24.3126    9.0329   12.9500 C   0  0  0  0  0  0  0  0  0  0  0  0
   24.1459    7.8522   13.3808 C   0  0  0  0  0  0  0  0  0  0  0  0
   23.3633   10.9719   11.6782 C   0  0  0  0  0  0  0  0  0  0  0  0
   23.5830   12.0487   12.5246 O   0  0  0  0  0  0  0  0  0  0  0  0
   23.4639   11.0337   10.4725 O   0  0  0  0  0  0  0  0  0  0  0  0
  2  1  1  1
  2  3  1  0
  3  4  1  0
  4  5  1  0
  5  6  1  0
  2  7  1  0
  6  7  1  0
  5  8  1  6
  8  9  1  0
  8 10  2  0
M  END
$$$$
1
     RDKit          3D

 10 10  0  0  0  0  0  0  0  0999 V2000
   22.8756    4.9895   13.4947 O   0  0  0  0  0  0  0  0  0  0  0  0
   22.8046    6.3834   13.3020 C   0  0  0  0  0  0  0  0  0  0  0  0
   21.5161    6.9967   13.3156 C   0  0  0  0  0  0  0  0  0  0  0  0
   23.8009    7.0419   12.5027 C   0  0  0  0  0  0  0  0  0  0  0  0
   23.4858    8.4011   12.2995 C   0  0  0  0  0  0  0  0  0  0  0  0
   21.4839    8.4130   13.0796 C   0  0  0  0  0  0  0  0  0  0  0  0
   22.5178    8.9076   12.5002 C   0  0  0  0  0  0  0  0  0  0  0  0
   22.2892   10.3321   12.1543 C   0  0  0  0  0  0  0  0  0  0  0  0
   22.5868   10.7151   10.8940 O   0  0  0  0  0  0  0  0  0  0  0  0
   22.2748   11.3062   13.0281 N   0  0  0  0  0  0  0  0  0  0  0  0
  1  2  2  0
  2  3  1  0
  2  4  1  0
  4  5  1  0
  3  6  1  0
  5  7  1  0
  6  7  1  0
  7  8  1  0
  8  9  2  0
  8 10  1  0
M  END
$$$$
10
     RDKit          3D

 12 12  0  0  0  0  0  0  0  0999 V2000
   22.5823    7.2262   13.5957 O   0  0  0  0  0  0  0  0  0  0  0  0
   22.8152    7.7170   12.5763 C   0  0  0  0  0  0  0  0  0  0  0  0
   22.0383    7.7553   11.5442 N   0  0  0  0  0  0  0  0  0  0  0  0
   23.9056    8.7457   12.5441 C   0  0  0  0  0  0  0  0  0  0  0  0
   23.8390    9.5054   11.4270 C   0  0  2  0  0  0  0  0  0  0  0  0
   22.3821    8.7284   10.5360 C   0  0  0  0  0  0  0  0  0  0  0  0
   23.1885    9.5657   10.4699 N   0  0  0  0  0  0  0  0  0  0  0  0
   25.0321   10.3359   11.3564 O   0  0  0  0  0  0  0  0  0  0  0  0
   21.3404    8.6052    9.5184 O   0  0  0  0  0  0  0  0  0  0  0  0
   25.0302   11.5364   12.2316 C   0  0  0  0  0  0  0  0  0  0  0  0
   23.9959   11.5916   13.0717 C   0  0  0  0  0  0  0  0  0  0  0  0
   24.4220   12.0827   14.3671 O   0  0  0  0  0  0  0  0  0  0  0  0
  1  2  2  0
  2  3  1  0
  2  4  1  0
  4  5  1  0
  3  6  1  0
  5  7  1  0
  6  7  1  0
  5  8  1  6
  6  9  2  0
  8 10  1  0
 10 11  1  0
 11 12  1  0
M  END
$$$$
100
     RDKit          3D

 19 20  0  0  0  0  0  0  0  0999 V2000
   20.8573    6.9514   13.6202 O   0  0  0  0  0  0  0  0  0  0  0  0
   22.0867    6.8578   13.1553 C   0  0  0  0  0  0  0  0  0  0  0  0
   22.9307    6.0591   13.7500 C   0  0  0  0  0  0  0  0  0  0  0  0
   22.5844    7.9247   12.2539 N   0  0  0  0  0  0  0  0  0  0  0  0
   22.6628    9.3116   12.3345 C   0  0  2  0  0  0  0  0  0  0  0  0
   23.0331    9.9125   11.0711 C   0  0  1  0  0  0  0  0  0  0  0  0
   22.8234    9.9888   13.4151 O   0  0  0  0  0  0  0  0  0  0  0  0
   23.2859   11.2781   13.0002 C   0  0  0  0  0  0  0  0  0  0  0  0
   23.5942   11.2477   11.5969 C   0  0  1  0  0  0  0  0  0  0  0  0
   24.9071   11.3588   10.9839 O   0  0  0  0  0  0  0  0  0  0  0  0
   23.8437   12.0322   14.0028 O   0  0  0  0  0  0  0  0  0  0  0  0
   24.1137    9.4024   10.2700 O   0  0  0  0  0  0  0  0  0  0  0  0
   24.9773   10.3517    9.8795 C   0  0  2  0  0  0  0  0  0  0  0  0
   26.1729    9.6605    9.4968 C   0  0  2  0  0  0  0  0  0  0  0  0
   27.2769   10.3938    9.2882 O   0  0  0  0  0  0  0  0  0  0  0  0
   25.9352    8.9729    8.1420 C   0  0  0  0  0  0  0  0  0  0  0  0
   26.3968    7.6862    7.9163 N   0  0  0  0  0  0  0  0  0  0  0  0
   25.2046    9.5353    7.3025 O   0  0  0  0  0  0  0  0  0  0  0  0
   26.5882    7.1197    6.6422 C   0  0  0  0  0  0  0  0  0  0  0  0
  1  2  2  0
  2  3  1  0
  2  4  1  0
  5  4  1  1
  5  6  1  0
  5  7  1  0
  7  8  1  0
  6  9  1  0
  8  9  1  0
  9 10  1  1
  8 11  2  0
  6 12  1  1
 13 10  1  1
 12 13  1  0
 13 14  1  0
 14 15  1  6
 14 16  1  0
 16 17  1  0
 16 18  2  0
 17 19  1  0
M  END
$$$$
101
     RDKit          3D

 19 19  0  0  0  0  0  0  0  0999 V2000
   21.7407    6.7687   13.3068 C   0  0  0  0  0  0  0  0  0  0  0  0
   22.2066    7.8692   12.5525 C   0  0  2  0  0  0  0  0  0  0  0  0
   22.3177    5.8062   13.1860 C   0  0  0  0  0  0  0  0  0  0  0  0
   22.2108    4.7086   13.9596 C   0  0  2  0  0  0  0  0  0  0  0  0
   23.1004    4.3061   14.7674 C   0  0  2  0  0  0  0  0  0  0  0  0
   22.2553    8.0765   11.2353 C   0  0  0  0  0  0  0  0  0  0  0  0
   22.7603    9.2675   10.5870 N   0  0  0  0  0  0  0  0  0  0  0  0
   21.3441    7.7516   10.4222 O   0  0  0  0  0  0  0  0  0  0  0  0
   21.7474    3.7760   12.8596 C   0  0  0  0  0  0  0  0  0  0  0  0
   23.0202    8.9401   13.3014 C   0  0  0  0  0  0  0  0  0  0  0  0
   23.5203   10.0651   12.6395 N   0  0  0  0  0  0  0  0  0  0  0  0
   23.4186   10.2126   11.2696 C   0  0  0  0  0  0  0  0  0  0  0  0
   24.0229   11.2848   10.6858 N   0  0  0  0  0  0  0  0  0  0  0  0
   21.3980    2.5067   13.1090 C   0  0  0  0  0  0  0  0  0  0  0  0
   24.2135    3.7420   14.3338 C   0  0  0  0  0  0  0  0  0  0  0  0
   25.1476    3.1019   15.1990 C   0  0  0  0  0  0  0  0  0  0  0  0
   24.6012    2.5781   16.3150 C   0  0  0  0  0  0  0  0  0  0  0  0
   23.2064    3.0580   16.4219 F   0  0  0  0  0  0  0  0  0  0  0  0
   22.6906    3.7828   16.0641 C   0  0  0  0  0  0  0  0  0  0  0  0
  2  1  1  6
  1  3  1  0
  4  3  1  6
  4  5  1  0
  2  6  1  0
  6  7  1  0
  6  8  2  0
  4  9  1  0
  2 10  1  0
 10 11  1  0
  7 12  1  0
 11 12  1  0
 12 13  1  0
  9 14  1  0
  5 15  1  0
 15 16  1  0
 16 17  1  0
 17 18  1  0
  5 19  1  1
M  END
$$$$
102
     RDKit          3D

 19 20  0  0  0  0  0  0  0  0999 V2000
   21.5424    8.4662    8.8819 O   0  0  0  0  0  0  0  0  0  0  0  0
   22.2195    9.0191   10.0087 C   0  0  1  0  0  0  0  0  0  0  0  0
   22.1154    8.4099   11.3200 C   0  0  2  0  0  0  0  0  0  0  0  0
   23.2795    9.8964    9.8511 C   0  0  1  0  0  0  0  0  0  0  0  0
   21.3061    7.3140   11.5972 C   0  0  0  0  0  0  0  0  0  0  0  0
   23.6385   10.3485    8.5602 O   0  0  0  0  0  0  0  0  0  0  0  0
   22.7698    9.1196   12.4189 C   0  0  0  0  0  0  0  0  0  0  0  0
   23.9523   10.4924   10.8997 C   0  0  2  0  0  0  0  0  0  0  0  0
   23.6589   10.1056   12.2511 C   0  0  1  0  0  0  0  0  0  0  0  0
   20.8699    6.6137   10.7280 O   0  0  0  0  0  0  0  0  0  0  0  0
   24.0968   10.9095   13.0411 O   0  0  0  0  0  0  0  0  0  0  0  0
   21.2523    6.8102   12.8588 C   0  0  0  0  0  0  0  0  0  0  0  0
   24.8503   11.5887   10.8041 O   0  0  0  0  0  0  0  0  0  0  0  0
   22.0534    5.8703   13.4235 C   0  0  0  0  0  0  0  0  0  0  0  0
   23.0290    6.1099   14.2878 O   0  0  0  0  0  0  0  0  0  0  0  0
   21.9345    4.6080   12.9428 C   0  0  0  0  0  0  0  0  0  0  0  0
   25.1790   11.9674   12.1711 C   0  0  2  0  0  0  0  0  0  0  0  0
   26.1222   11.6940   13.2027 C   0  0  0  0  0  0  0  0  0  0  0  0
   26.3543   12.8552   13.8399 O   0  0  0  0  0  0  0  0  0  0  0  0
  2  1  1  6
  2  3  1  0
  2  4  1  0
  3  5  1  1
  4  6  1  6
  3  7  1  0
  4  8  1  0
  9  7  1  6
  8  9  1  0
  5 10  2  0
  9 11  1  0
  5 12  1  0
  8 13  1  1
 12 14  1  0
 14 15  2  0
 14 16  1  0
 11 17  1  0
 13 17  1  0
 17 18  1  1
 18 19  1  0
M  END
$$$$
103
     RDKit          3D

 19 20  0  0  0  0  0  0  0  0999 V2000
   24.1941   12.4771   13.7587 O   0  0  0  0  0  0  0  0  0  0  0  0
   24.8291   11.8892   12.7425 C   0  0  0  0  0  0  0  0  0  0  0  0
   26.0037   12.2811   12.3665 N   0  0  0  0  0  0  0  0  0  0  0  0
   24.2609   10.8135   11.9062 C   0  0  2  0  0  0  0  0  0  0  0  0
   24.6259   10.5017   10.8235 C   0  0  2  0  0  0  0  0  0  0  0  0
   23.9112    9.4801    9.9840 N   0  0  0  0  0  0  0  0  0  0  0  0
   25.8601   10.9901   10.2963 N   0  0  0  0  0  0  0  0  0  0  0  0
   26.4565   11.9248   11.0701 C   0  0  0  0  0  0  0  0  0  0  0  0
   23.0328   10.2707   12.7819 C   0  0  0  0  0  0  0  0  0  0  0  0
   22.8317    8.8852   10.6675 C   0  0  1  0  0  0  0  0  0  0  0  0
   22.5253    9.1036   12.0040 C   0  0  1  0  0  0  0  0  0  0  0  0
   21.9732    8.2109    9.6812 O   0  0  0  0  0  0  0  0  0  0  0  0
   26.8122   13.2423   13.2439 C   0  0  0  0  0  0  0  0  0  0  0  0
   22.4608    7.7814   12.6163 C   0  0  0  0  0  0  0  0  0  0  0  0
   23.2781    6.9569   12.8654 O   0  0  0  0  0  0  0  0  0  0  0  0
   21.2600    7.6651   13.3005 O   0  0  0  0  0  0  0  0  0  0  0  0
   27.1679   14.3045   12.7405 O   0  0  0  0  0  0  0  0  0  0  0  0
   27.5660   12.7696   14.2006 C   0  0  0  0  0  0  0  0  0  0  0  0
   27.6237   11.4889   14.7568 O   0  0  0  0  0  0  0  0  0  0  0  0
  1  2  2  0
  2  3  1  0
  2  4  1  0
  4  5  1  0
  5  6  1  1
  5  7  1  0
  3  8  1  0
  7  8  1  0
  4  9  1  6
  6 10  1  0
  9 11  1  0
 10 11  1  0
 10 12  1  6
  3 13  1  0
 11 14  1  1
 14 15  2  0
 14 16  1  0
 13 17  1  0
 13 18  2  3
 18 19  1  0
M  END
$$$$
104
     RDKit          3D

 19 19  0  0  0  0  0  0  0  0999 V2000
   25.7896    6.5384    6.4570 O   0  0  0  0  0  0  0  0  0  0  0  0
   26.2229    7.7215    7.0027 C   0  0  0  0  0  0  0  0  0  0  0  0
   25.2335    8.5904    7.4753 C   0  0  0  0  0  0  0  0  0  0  0  0
   25.5381    9.5456    8.4819 C   0  0  1  0  0  0  0  0  0  0  0  0
   25.4403   10.9753    8.1187 C   0  0  1  0  0  0  0  0  0  0  0  0
   24.6134    9.3859    9.7077 N   0  0  0  0  0  0  0  0  0  0  0  0
   24.0002   10.4939   10.2228 C   0  0  2  0  0  0  0  0  0  0  0  0
   24.8318   11.5893    9.4420 C   0  0  0  0  0  0  0  0  0  0  0  0
   24.0726   10.6677   11.6549 N   0  0  0  0  0  0  0  0  0  0  0  0
   23.3316    9.8198   12.4317 C   0  0  0  0  0  0  0  0  0  0  0  0
   26.5782   11.6898    7.7089 O   0  0  0  0  0  0  0  0  0  0  0  0
   24.8761   11.6331   12.2442 C   0  0  0  0  0  0  0  0  0  0  0  0
   26.0203   11.8117   12.0977 O   0  0  0  0  0  0  0  0  0  0  0  0
   24.2655   12.2114   13.4816 O   0  0  0  0  0  0  0  0  0  0  0  0
   23.1161    8.3829   12.2094 C   0  0  0  0  0  0  0  0  0  0  0  0
   22.0940    7.7417   12.9792 C   0  0  0  0  0  0  0  0  0  0  0  0
   22.0159    6.3079   13.1137 C   0  0  0  0  0  0  0  0  0  0  0  0
   21.0217    5.6547   12.7384 C   0  0  0  0  0  0  0  0  0  0  0  0
   19.9002    6.3529   12.6462 C   0  0  0  0  0  0  0  0  0  0  0  0
  1  2  1  0
  2  3  1  0
  4  3  1  6
  4  5  1  0
  4  6  1  0
  6  7  1  0
  5  8  1  0
  7  8  1  0
  7  9  1  1
  9 10  1  0
  5 11  1  1
  9 12  1  0
 12 13  2  0
 12 14  1  0
 10 15  1  0
 15 16  1  0
 16 17  1  0
 17 18  1  0
 18 19  1  0
M  END
$$$$
105
     RDKit          3D

 19 20  0  0  0  0  0  0  0  0999 V2000
   21.5836    6.2491   13.3594 C   0  0  1  0  0  0  0  0  0  0  0  0
   22.7201    5.8103   13.5961 C   0  0  0  0  0  0  0  0  0  0  0  0
   20.6172    6.0071   13.8610 C   0  0  0  0  0  0  0  0  0  0  0  0
   22.7773    4.3679   13.8483 C   0  0  0  0  0  0  0  0  0  0  0  0
   21.6992    3.7371   13.7106 C   0  0  1  0  0  0  0  0  0  0  0  0
   21.5524    2.3879   13.9803 C   0  0  0  0  0  0  0  0  0  0  0  0
   20.5533    4.4559   13.4317 C   0  0  0  0  0  0  0  0  0  0  0  0
   21.5463    7.6424   12.7513 C   0  0  0  0  0  0  0  0  0  0  0  0
   22.8996    8.3308   12.4467 C   0  0  0  0  0  0  0  0  0  0  0  0
   22.2692    1.6173   13.3663 C   0  0  0  0  0  0  0  0  0  0  0  0
   22.8520    9.6332   12.3481 C   0  0  1  0  0  0  0  0  0  0  0  0
   23.4533   10.4788   13.3274 O   0  0  0  0  0  0  0  0  0  0  0  0
   23.8019   10.0328   11.0054 C   0  0  1  0  0  0  0  0  0  0  0  0
   23.1458   10.5326    9.8685 O   0  0  0  0  0  0  0  0  0  0  0  0
   24.7772   11.1000   11.3425 C   0  0  0  0  0  0  0  0  0  0  0  0
   24.2993   11.6247   12.8672 C   0  0  2  0  0  0  0  0  0  0  0  0
   23.1417    9.4111    8.8972 C   0  0  0  0  0  0  0  0  0  0  0  0
   25.3877   11.9390   13.7211 O   0  0  0  0  0  0  0  0  0  0  0  0
   25.8856   11.4876   10.8193 O   0  0  0  0  0  0  0  0  0  0  0  0
  1  2  1  0
  1  3  1  0
  2  4  1  0
  4  5  1  0
  5  6  1  1
  3  7  1  0
  5  7  1  0
  1  8  1  1
  8  9  1  0
  6 10  2  0
 11  9  1  1
 11 12  1  0
 11 13  1  0
 13 14  1  6
 13 15  1  0
 12 16  1  0
 15 16  1  0
 14 17  1  0
 16 18  1  1
 15 19  2  0
M  END
$$$$
106
     RDKit          3D

 19 20  0  0  0  0  0  0  0  0999 V2000
   26.0226    6.8146    6.7977 O   0  0  0  0  0  0  0  0  0  0  0  0
   26.0534    7.9104    6.9298 C   0  0  0  0  0  0  0  0  0  0  0  0
   27.1977    8.4990    7.4327 N   0  0  0  0  0  0  0  0  0  0  0  0
   24.8969    8.5997    7.6144 N   0  0  0  0  0  0  0  0  0  0  0  0
   25.0067   10.0051    7.8844 C   0  0  0  0  0  0  0  0  0  0  0  0
   26.1204   10.4255    8.4946 C   0  0  1  0  0  0  0  0  0  0  0  0
   23.8682   10.7336    7.7994 O   0  0  0  0  0  0  0  0  0  0  0  0
   27.3293    9.7814    8.0892 C   0  0  0  0  0  0  0  0  0  0  0  0
   26.1904   11.7362    9.1468 C   0  0  0  0  0  0  0  0  0  0  0  0
   27.1166   12.5301    8.8697 O   0  0  0  0  0  0  0  0  0  0  0  0
   25.2666   12.1040   10.0759 N   0  0  0  0  0  0  0  0  0  0  0  0
   25.3004   12.4130   11.2483 C   0  0  2  0  0  0  0  0  0  0  0  0
   25.8908   11.3432   12.1667 O   0  0  0  0  0  0  0  0  0  0  0  0
   23.9388   12.6209   11.8590 C   0  0  1  0  0  0  0  0  0  0  0  0
   23.3922   11.3230   12.0060 C   0  0  2  0  0  0  0  0  0  0  0  0
   23.9555   13.3177   13.1818 O   0  0  0  0  0  0  0  0  0  0  0  0
   24.7294   10.4911   12.4747 C   0  0  1  0  0  0  0  0  0  0  0  0
   22.8879   10.5856   10.9147 O   0  0  0  0  0  0  0  0  0  0  0  0
   24.5037    9.1194   12.4577 O   0  0  0  0  0  0  0  0  0  0  0  0
  1  2  2  0
  2  3  1  0
  2  4  1  0
  4  5  1  0
  5  6  1  0
  5  7  2  0
  3  8  1  0
  6  8  1  0
  6  9  1  6
  9 10  2  0
  9 11  1  0
 12 11  1  6
 12 13  1  0
 12 14  1  0
 14 15  1  0
 14 16  1  1
 13 17  1  0
 15 17  1  0
 15 18  1  6
 17 19  1  6
M  END
$$$$
107
     RDKit          3D

 19 20  0  0  0  0  0  0  0  0999 V2000
   22.5823    7.2262   13.5957 O   0  0  0  0  0  0  0  0  0  0  0  0
   22.8152    7.7170   12.5763 C   0  0  0  0  0  0  0  0  0  0  0  0
   22.0383    7.7553   11.5442 N   0  0  0  0  0  0  0  0  0  0  0  0
   23.3916    9.2689   12.7826 C   0  0  0  0  0  0  0  0  0  0  0  0
   23.5591    9.7629   11.7895 C   0  0  1  0  0  0  0  0  0  0  0  0
   22.1618    8.6446   10.4773 C   0  0  0  0  0  0  0  0  0  0  0  0
   22.9465    9.7549   10.6077 N   0  0  0  0  0  0  0  0  0  0  0  0
   24.5293   10.9681   11.9508 N   0  0  0  0  0  0  0  0  0  0  0  0
   25.7093   11.0013   11.3443 C   0  0  1  0  0  0  0  0  0  0  0  0
   25.8344   10.4952   10.1757 O   0  0  0  0  0  0  0  0  0  0  0  0
   24.0731   11.9754   12.9091 C   0  0  0  0  0  0  0  0  0  0  0  0
   23.1042   11.8368   13.6562 O   0  0  0  0  0  0  0  0  0  0  0  0
   26.6740   12.1150   11.5406 C   0  0  0  0  0  0  0  0  0  0  0  0
   25.1035   12.9030   13.5097 C   0  0  0  0  0  0  0  0  0  0  0  0
   26.5852   12.8080   12.9082 C   0  0  0  0  0  0  0  0  0  0  0  0
   27.2922   14.0481   12.9991 O   0  0  0  0  0  0  0  0  0  0  0  0
   27.5597   12.4050   10.7393 C   0  0  0  0  0  0  0  0  0  0  0  0
   27.4258   11.9845   14.0039 O   0  0  0  0  0  0  0  0  0  0  0  0
   21.4636    8.6628    9.3511 O   0  0  0  0  0  0  0  0  0  0  0  0
  1  2  2  0
  2  3  1  0
  2  4  1  0
  4  5  1  0
  3  6  1  0
  5  7  1  0
  6  7  1  0
  5  8  1  1
  8  9  1  0
  9 10  1  6
  8 11  1  0
 11 12  2  0
  9 13  1  0
 11 14  1  0
 13 15  1  0
 14 15  1  0
 15 16  1  0
 13 17  2  0
 15 18  1  0
  6 19  2  0
M  END
$$$$
108
     RDKit          3D

 19 20  0  0  0  0  0  0  0  0999 V2000
   21.5836    6.2491   13.3594 C   0  0  1  0  0  0  0  0  0  0  0  0
   22.7201    5.8103   13.5961 C   0  0  0  0  0  0  0  0  0  0  0  0
   20.6172    6.0071   13.8610 C   0  0  0  0  0  0  0  0  0  0  0  0
   22.7773    4.3679   13.8483 C   0  0  0  0  0  0  0  0  0  0  0  0
   21.6992    3.7371   13.7106 C   0  0  1  0  0  0  0  0  0  0  0  0
   21.5524    2.3879   13.9803 C   0  0  0  0  0  0  0  0  0  0  0  0
   20.5533    4.4559   13.4317 C   0  0  0  0  0  0  0  0  0  0  0  0
   21.5463    7.6424   12.7513 C   0  0  0  0  0  0  0  0  0  0  0  0
   22.8996    8.3308   12.4467 C   0  0  0  0  0  0  0  0  0  0  0  0
   22.2692    1.6173   13.3663 C   0  0  0  0  0  0  0  0  0  0  0  0
   22.8520    9.6332   12.3481 C   0  0  1  0  0  0  0  0  0  0  0  0
   23.4533   10.4788   13.3274 O   0  0  0  0  0  0  0  0  0  0  0  0
   23.0372   10.2826   10.9914 C   0  0  1  0  0  0  0  0  0  0  0  0
   24.1723   11.6546   12.8697 C   0  0  0  0  0  0  0  0  0  0  0  0
   24.0663   11.5616   11.4380 C   0  0  0  0  0  0  0  0  0  0  0  0
   22.9956    9.6927    9.8519 O   0  0  0  0  0  0  0  0  0  0  0  0
   24.8373   12.3989   13.5775 C   0  0  0  0  0  0  0  0  0  0  0  0
   24.7769   12.3958   10.5968 O   0  0  0  0  0  0  0  0  0  0  0  0
   26.0103   11.9477   14.2293 O   0  0  0  0  0  0  0  0  0  0  0  0
  1  2  1  0
  1  3  1  0
  2  4  1  0
  4  5  1  0
  5  6  1  1
  3  7  1  0
  5  7  1  0
  1  8  1  1
  8  9  1  0
  6 10  2  0
 11  9  1  6
 11 12  1  0
 11 13  1  0
 12 14  1  0
 13 15  1  0
 14 15  1  0
 13 16  1  6
 14 17  2  3
 15 18  2  0
 17 19  1  0
M  END
$$$$
109
     RDKit          3D

 19 20  0  0  0  0  0  0  0  0999 V2000
   21.5424    8.4662    8.8819 O   0  0  0  0  0  0  0  0  0  0  0  0
   22.2195    9.0191   10.0087 C   0  0  1  0  0  0  0  0  0  0  0  0
   22.1154    8.4099   11.3200 C   0  0  2  0  0  0  0  0  0  0  0  0
   23.7282    9.1524    9.6199 C   0  0  2  0  0  0  0  0  0  0  0  0
   22.8729    9.0650   12.4425 C   0  0  0  0  0  0  0  0  0  0  0  0
   24.2126    9.4879   12.1479 O   0  0  0  0  0  0  0  0  0  0  0  0
   22.3605    9.0061   13.6496 O   0  0  0  0  0  0  0  0  0  0  0  0
   24.4499   10.0174   10.8179 C   0  0  2  0  0  0  0  0  0  0  0  0
   24.0473    9.8465    8.4559 O   0  0  0  0  0  0  0  0  0  0  0  0
   24.0900   11.3804   10.5941 C   0  0  1  0  0  0  0  0  0  0  0  0
   24.8034   12.1663   11.6348 O   0  0  0  0  0  0  0  0  0  0  0  0
   22.6218    7.0494   11.2811 O   0  0  0  0  0  0  0  0  0  0  0  0
   24.3879   11.9530    9.4033 C   0  0  2  0  0  0  0  0  0  0  0  0
   24.6644   10.8965    8.3206 C   0  0  1  0  0  0  0  0  0  0  0  0
   26.1714   10.5536    8.2748 C   0  0  0  0  0  0  0  0  0  0  0  0
   25.5087   12.8263    9.6582 O   0  0  0  0  0  0  0  0  0  0  0  0
   26.4221    9.5140    7.3211 C   0  0  0  0  0  0  0  0  0  0  0  0
   26.8833    8.2572    7.9324 C   0  0  0  0  0  0  0  0  0  0  0  0
   26.6852    7.0301    7.2115 C   0  0  0  0  0  0  0  0  0  0  0  0
  2  1  1  6
  2  3  1  0
  2  4  1  0
  3  5  1  0
  5  6  1  0
  5  7  2  0
  4  8  1  0
  8  6  1  1
  4  9  1  6
  8 10  1  0
 10 11  1  1
  3 12  1  6
 10 13  1  0
  9 14  1  0
 13 14  1  0
 14 15  1  1
 13 16  1  1
 15 17  1  0
 17 18  1  0
 18 19  1  0
M  END
$$$$
11
     RDKit          3D

 12 12  0  0  0  0  0  0  0  0999 V2000
   21.5424    8.4662    8.8819 O   0  0  0  0  0  0  0  0  0  0  0  0
   22.2195    9.0191   10.0087 C   0  0  1  0  0  0  0  0  0  0  0  0
   22.1154    8.4099   11.3200 C   0  0  2  0  0  0  0  0  0  0  0  0
   23.7282    9.1524    9.6199 C   0  0  2  0  0  0  0  0  0  0  0  0
   22.8729    9.0650   12.4425 C   0  0  0  0  0  0  0  0  0  0  0  0
   24.2126    9.4879   12.1479 O   0  0  0  0  0  0  0  0  0  0  0  0
   22.3605    9.0061   13.6496 O   0  0  0  0  0  0  0  0  0  0  0  0
   24.4499   10.0174   10.8179 C   0  0  1  0  0  0  0  0  0  0  0  0
   24.0473    9.8465    8.4559 O   0  0  0  0  0  0  0  0  0  0  0  0
   25.8678   10.1586   10.8729 C   0  0  0  0  0  0  0  0  0  0  0  0
   26.1238   11.4656   10.0714 O   0  0  0  0  0  0  0  0  0  0  0  0
   22.5965    7.0546   11.1679 O   0  0  0  0  0  0  0  0  0  0  0  0
  2  1  1  6
  2  3  1  0
  2  4  1  0
  3  5  1  0
  5  6  1  0
  5  7  2  0
  4  8  1  0
  6  8  1  0
  4  9  1  6
  8 10  1  6
 10 11  1  0
  3 12  1  6
M  END
$$$$
110
     RDKit          3D

 19 19  0  0  0  0  0  0  0  0999 V2000
   21.7407    6.7687   13.3068 C   0  0  0  0  0  0  0  0  0  0  0  0
   22.2066    7.8692   12.5525 C   0  0  2  0  0  0  0  0  0  0  0  0
   22.3177    5.8062   13.1860 C   0  0  0  0  0  0  0  0  0  0  0  0
   22.2108    4.7086   13.9596 C   0  0  2  0  0  0  0  0  0  0  0  0
   23.1004    4.3061   14.7674 C   0  0  2  0  0  0  0  0  0  0  0  0
   22.2553    8.0765   11.2353 C   0  0  0  0  0  0  0  0  0  0  0  0
   22.7603    9.2675   10.5870 N   0  0  0  0  0  0  0  0  0  0  0  0
   21.3441    7.7516   10.4222 O   0  0  0  0  0  0  0  0  0  0  0  0
   21.7474    3.7760   12.8596 C   0  0  0  0  0  0  0  0  0  0  0  0
   23.0202    8.9401   13.3014 C   0  0  0  0  0  0  0  0  0  0  0  0
   23.5203   10.0651   12.6395 N   0  0  0  0  0  0  0  0  0  0  0  0
   23.4186   10.2126   11.2696 C   0  0  0  0  0  0  0  0  0  0  0  0
   24.0229   11.2848   10.6858 N   0  0  0  0  0  0  0  0  0  0  0  0
   21.3980    2.5067   13.1090 C   0  0  0  0  0  0  0  0  0  0  0  0
   24.2135    3.7420   14.3338 C   0  0  0  0  0  0  0  0  0  0  0  0
   25.1476    3.1019   15.1990 C   0  0  0  0  0  0  0  0  0  0  0  0
   24.6012    2.5781   16.3150 C   0  0  0  0  0  0  0  0  0  0  0  0
   23.2064    3.0580   16.4219 F   0  0  0  0  0  0  0  0  0  0  0  0
   22.5287    3.2493   15.7754 F   0  0  0  0  0  0  0  0  0  0  0  0
  2  1  1  6
  1  3  1  0
  4  3  1  6
  4  5  1  0
  2  6  1  0
  6  7  1  0
  6  8  2  0
  4  9  1  0
  2 10  1  0
 10 11  1  0
  7 12  1  0
 11 12  1  0
 12 13  1  0
  9 14  1  0
  5 15  1  0
 15 16  1  0
 16 17  1  0
 17 18  1  0
  5 19  1  1
M  END
$$$$
111
     RDKit          3D

 19 20  0  0  0  0  0  0  0  0999 V2000
   21.5836    6.2491   13.3594 C   0  0  1  0  0  0  0  0  0  0  0  0
   22.7201    5.8103   13.5961 C   0  0  0  0  0  0  0  0  0  0  0  0
   20.6172    6.0071   13.8610 C   0  0  0  0  0  0  0  0  0  0  0  0
   22.7773    4.3679   13.8483 C   0  0  0  0  0  0  0  0  0  0  0  0
   21.6992    3.7371   13.7106 C   0  0  1  0  0  0  0  0  0  0  0  0
   21.5524    2.3879   13.9803 C   0  0  0  0  0  0  0  0  0  0  0  0
   20.5533    4.4559   13.4317 C   0  0  0  0  0  0  0  0  0  0  0  0
   21.5463    7.6424   12.7513 C   0  0  0  0  0  0  0  0  0  0  0  0
   22.8996    8.3308   12.4467 C   0  0  0  0  0  0  0  0  0  0  0  0
   22.2692    1.6173   13.3663 C   0  0  0  0  0  0  0  0  0  0  0  0
   22.8520    9.6332   12.3481 C   0  0  1  0  0  0  0  0  0  0  0  0
   23.4533   10.4788   13.3274 O   0  0  0  0  0  0  0  0  0  0  0  0
   23.8019   10.0328   11.0054 C   0  0  1  0  0  0  0  0  0  0  0  0
   23.1458   10.5326    9.8685 O   0  0  0  0  0  0  0  0  0  0  0  0
   24.7772   11.1000   11.3425 C   0  0  2  0  0  0  0  0  0  0  0  0
   24.2993   11.6247   12.8672 C   0  0  2  0  0  0  0  0  0  0  0  0
   25.4263   11.8833   13.7327 O   0  0  0  0  0  0  0  0  0  0  0  0
   25.1388   11.9456   10.3685 O   0  0  0  0  0  0  0  0  0  0  0  0
   23.5648    9.5956    8.7219 C   0  0  0  0  0  0  0  0  0  0  0  0
  1  2  1  0
  1  3  1  0
  2  4  1  0
  4  5  1  0
  5  6  1  1
  3  7  1  0
  5  7  1  0
  1  8  1  1
  8  9  1  0
  6 10  2  0
 11  9  1  1
 11 12  1  0
 11 13  1  0
 13 14  1  6
 13 15  1  0
 12 16  1  0
 15 16  1  0
 16 17  1  1
 15 18  1  6
 14 19  1  0
M  END
$$$$
112
     RDKit          3D

 19 21  0  0  0  0  0  0  0  0999 V2000
   24.1941   12.4771   13.7587 O   0  0  0  0  0  0  0  0  0  0  0  0
   24.8291   11.8892   12.7425 C   0  0  0  0  0  0  0  0  0  0  0  0
   24.1492   10.8359   12.0522 C   0  0  2  0  0  0  0  0  0  0  0  0
   25.9422   12.5059   12.2271 N   0  0  0  0  0  0  0  0  0  0  0  0
   26.6236   13.5817   12.7383 C   0  0  0  0  0  0  0  0  0  0  0  0
   24.4990   10.8714   10.6260 C   0  0  1  0  0  0  0  0  0  0  0  0
   25.5778   11.5213   10.0577 N   0  0  0  0  0  0  0  0  0  0  0  0
   23.8415    9.9018    9.8199 N   0  0  0  0  0  0  0  0  0  0  0  0
   26.1856   12.3781   10.8207 C   0  0  0  0  0  0  0  0  0  0  0  0
   23.1784    9.9955   12.5738 C   0  0  0  0  0  0  0  0  0  0  0  0
   22.8285    9.1043   10.4355 C   0  0  0  0  0  0  0  0  0  0  0  0
   27.2728   13.0778   10.6913 N   0  0  0  0  0  0  0  0  0  0  0  0
   27.6250   13.7997   11.7642 C   0  0  0  0  0  0  0  0  0  0  0  0
   26.7682   13.9482   14.0253 O   0  0  0  0  0  0  0  0  0  0  0  0
   22.7848    9.0176   11.8006 C   0  0  2  0  0  0  0  0  0  0  0  0
   22.1317    8.2274    9.6211 O   0  0  0  0  0  0  0  0  0  0  0  0
   21.6682    8.1420   12.2858 C   0  0  0  0  0  0  0  0  0  0  0  0
   22.3687    6.9520   13.0420 C   0  0  0  0  0  0  0  0  0  0  0  0
   22.5898    5.8788   13.0729 C   0  0  0  0  0  0  0  0  0  0  0  0
  1  2  2  0
  2  3  1  0
  2  4  1  0
  4  5  1  0
  3  6  1  0
  6  7  1  1
  6  8  1  0
  4  9  1  0
  7  9  1  0
  3 10  1  6
  8 11  1  0
  9 12  2  0
  5 13  1  0
 12 13  1  0
  5 14  2  0
 10 15  1  0
 11 15  1  0
 11 16  2  0
 15 17  1  6
 17 18  1  0
 18 19  2  0
M  END
$$$$
113
     RDKit          3D

 19 19  0  0  0  0  0  0  0  0999 V2000
   23.8320   11.8126   13.6464 O   0  0  0  0  0  0  0  0  0  0  0  0
   24.5328   11.5610   12.5175 C   0  0  0  0  0  0  0  0  0  0  0  0
   25.6959   11.6435   12.4588 O   0  0  0  0  0  0  0  0  0  0  0  0
   23.7938   10.6902   11.4840 C   0  0  2  0  0  0  0  0  0  0  0  0
   23.1826    9.4657   11.9562 C   0  0  1  0  0  0  0  0  0  0  0  0
   23.9589   11.1184   10.2358 O   0  0  0  0  0  0  0  0  0  0  0  0
   25.1483   11.4763    9.6793 C   0  0  0  0  0  0  0  0  0  0  0  0
   25.3387   10.9562    8.2486 C   0  0  0  0  0  0  0  0  0  0  0  0
   25.3460    9.5276    8.3608 N   0  0  0  0  0  0  0  0  0  0  0  0
   25.0804   11.5971    7.2795 O   0  0  0  0  0  0  0  0  0  0  0  0
   25.6261    8.7331    7.2363 C   0  0  0  0  0  0  0  0  0  0  0  0
   22.6637    8.5549   10.9131 C   0  0  0  0  0  0  0  0  0  0  0  0
   26.3822    7.5824    7.3669 C   0  0  0  0  0  0  0  0  0  0  0  0
   22.6587    8.9561    9.5590 O   0  0  0  0  0  0  0  0  0  0  0  0
   22.0789    7.4843   11.1870 N   0  0  0  0  0  0  0  0  0  0  0  0
   23.2894    8.9435   13.2232 C   0  0  0  0  0  0  0  0  0  0  0  0
   22.4683    7.7982   13.5127 C   0  0  0  0  0  0  0  0  0  0  0  0
   21.8660    7.0992   12.4933 C   0  0  2  0  0  0  0  0  0  0  0  0
   21.2200    6.0318   12.7246 N   0  0  0  0  0  0  0  0  0  0  0  0
  1  2  1  0
  2  3  2  0
  2  4  1  0
  4  5  1  0
  4  6  1  6
  6  7  1  0
  7  8  1  0
  8  9  1  0
  8 10  2  0
  9 11  1  0
  5 12  1  0
 11 13  1  0
 12 14  2  0
 12 15  1  0
  5 16  1  6
 16 17  1  0
 15 18  1  0
 17 18  1  0
 18 19  1  6
M  END
$$$$
114
     RDKit          3D

 19 19  0  0  0  0  0  0  0  0999 V2000
   22.7509    5.5965   13.5219 C   0  0  0  0  0  0  0  0  0  0  0  0
   22.3111    6.9013   13.3179 C   0  0  0  0  0  0  0  0  0  0  0  0
   22.2338    4.6565   13.5749 C   0  0  0  0  0  0  0  0  0  0  0  0
   23.1616    8.0646   12.9856 C   0  0  0  0  0  0  0  0  0  0  0  0
   21.2869    4.3386   12.6829 C   0  0  0  0  0  0  0  0  0  0  0  0
   20.6711    3.1103   12.7916 C   0  0  0  0  0  0  0  0  0  0  0  0
   22.9884    8.8779   12.1074 C   0  0  0  0  0  0  0  0  0  0  0  0
   22.1344    8.7510   10.9323 C   0  0  0  0  0  0  0  0  0  0  0  0
   21.8315    7.6179   10.4197 O   0  0  0  0  0  0  0  0  0  0  0  0
   23.7040   10.2171   12.2438 C   0  0  2  0  0  0  0  0  0  0  0  0
   21.7289    9.8251   10.2664 O   0  0  0  0  0  0  0  0  0  0  0  0
   20.9239    2.1216   13.6585 C   0  0  0  0  0  0  0  0  0  0  0  0
   23.1441   11.2667   12.9061 C   0  0  1  0  0  0  0  0  0  0  0  0
   24.9099   10.4701   11.6214 C   0  0  0  0  0  0  0  0  0  0  0  0
   22.0195   11.2933   13.6690 O   0  0  0  0  0  0  0  0  0  0  0  0
   25.4308   11.6181   11.5489 C   0  0  0  0  0  0  0  0  0  0  0  0
   25.0124   12.7111   12.3906 C   0  0  1  0  0  0  0  0  0  0  0  0
   24.0686   12.4462   13.1091 C   0  0  0  0  0  0  0  0  0  0  0  0
   25.8345   14.0355   12.3815 O   0  0  0  0  0  0  0  0  0  0  0  0
  1  2  1  0
  1  3  1  0
  2  4  1  0
  3  5  1  0
  5  6  1  0
  4  7  2  3
  7  8  1  0
  8  9  1  0
  7 10  1  0
  8 11  2  0
  6 12  1  0
 10 13  1  0
 10 14  1  6
 13 15  1  1
 14 16  1  0
 16 17  1  0
 13 18  1  0
 17 18  1  0
 17 19  1  1
M  END
$$$$
12
     RDKit          3D

 13 13  0  0  0  0  0  0  0  0999 V2000
   21.5424    8.4662    8.8819 O   0  0  0  0  0  0  0  0  0  0  0  0
   22.2195    9.0191   10.0087 C   0  0  0  0  0  0  0  0  0  0  0  0
   22.1154    8.4099   11.3200 C   0  0  0  0  0  0  0  0  0  0  0  0
   22.8257    8.9663   12.4612 C   0  0  2  0  0  0  0  0  0  0  0  0
   23.0118   10.1509    9.9894 C   0  0  0  0  0  0  0  0  0  0  0  0
   22.7038    8.2174   13.7470 O   0  0  0  0  0  0  0  0  0  0  0  0
   23.5368   10.1495   12.4453 C   0  0  0  0  0  0  0  0  0  0  0  0
   23.0011    6.8734   13.4238 C   0  0  0  0  0  0  0  0  0  0  0  0
   23.6269   10.7346   11.0794 C   0  0  0  0  0  0  0  0  0  0  0  0
   24.4386   12.0987   10.8831 C   0  0  0  0  0  0  0  0  0  0  0  0
   24.0532   10.6689   13.6212 O   0  0  0  0  0  0  0  0  0  0  0  0
   24.7418   12.3338    9.7596 O   0  0  0  0  0  0  0  0  0  0  0  0
   24.9756   12.5796   12.0015 O   0  0  0  0  0  0  0  0  0  0  0  0
  1  2  1  0
  2  3  1  0
  3  4  1  0
  2  5  1  0
  4  6  1  1
  4  7  1  0
  6  8  1  0
  5  9  1  0
  7  9  1  0
  9 10  1  0
  7 11  1  0
 10 12  2  0
 10 13  1  0
M  END
$$$$
13
     RDKit          3D

 13 13  0  0  0  0  0  0  0  0999 V2000
   21.5836    6.2491   13.3594 C   0  0  0  0  0  0  0  0  0  0  0  0
   22.7201    5.8103   13.5961 C   0  0  0  0  0  0  0  0  0  0  0  0
   21.6604    7.6226   12.6217 C   0  0  0  0  0  0  0  0  0  0  0  0
   22.7771    4.4226   14.0118 C   0  0  0  0  0  0  0  0  0  0  0  0
   21.8898    3.5312   13.3491 C   0  0  0  0  0  0  0  0  0  0  0  0
   23.0461    8.2015   12.5735 C   0  0  0  0  0  0  0  0  0  0  0  0
   21.0820    3.8857   12.3855 C   0  0  0  0  0  0  0  0  0  0  0  0
   20.9235    5.0782   12.4193 C   0  0  0  0  0  0  0  0  0  0  0  0
   23.2703    9.4343   12.7506 N   0  0  0  0  0  0  0  0  0  0  0  0
   23.3188   10.3442   11.8198 C   0  0  0  0  0  0  0  0  0  0  0  0
   23.5052   10.1762   10.6179 O   0  0  0  0  0  0  0  0  0  0  0  0
   23.7358   11.7583   12.2464 C   0  0  0  0  0  0  0  0  0  0  0  0
   24.6423   11.7882   13.1510 O   0  0  0  0  0  0  0  0  0  0  0  0
  1  2  1  0
  1  3  1  0
  2  4  1  0
  4  5  1  0
  3  6  1  0
  5  7  1  0
  1  8  1  0
  7  8  1  0
  6  9  1  0
  9 10  1  0
 10 11  2  0
 10 12  1  0
 12 13  1  0
M  END
$$$$
14
     RDKit          3D

 13 14  0  0  0  0  0  0  0  0999 V2000
   24.1941   12.4771   13.7587 O   0  0  0  0  0  0  0  0  0  0  0  0
   23.9099   11.5484   12.7758 C   0  0  1  0  0  0  0  0  0  0  0  0
   25.1195   11.0614   12.2605 C   0  0  1  0  0  0  0  0  0  0  0  0
   24.7839   10.0997   11.2313 O   0  0  0  0  0  0  0  0  0  0  0  0
   23.4560    9.7541   11.2344 C   0  0  2  0  0  0  0  0  0  0  0  0
   23.0096   10.4076   12.5043 C   0  0  1  0  0  0  0  0  0  0  0  0
   22.9892    8.4561   11.1207 C   0  0  1  0  0  0  0  0  0  0  0  0
   23.0985    9.6533   13.6852 O   0  0  0  0  0  0  0  0  0  0  0  0
   26.1445   12.1023   12.0875 C   0  0  0  0  0  0  0  0  0  0  0  0
   22.2419    8.0070   12.1965 C   0  0  0  0  0  0  0  0  0  0  0  0
   22.9201    8.0174    9.6999 O   0  0  0  0  0  0  0  0  0  0  0  0
   22.4131    8.3943   13.4585 C   0  0  0  0  0  0  0  0  0  0  0  0
   27.4703   11.6399   12.2112 O   0  0  0  0  0  0  0  0  0  0  0  0
  2  1  1  1
  2  3  1  0
  3  4  1  0
  5  4  1  1
  2  6  1  0
  5  6  1  0
  5  7  1  0
  6  8  1  1
  3  9  1  6
  7 10  1  0
  7 11  1  6
  8 12  1  0
 10 12  1  0
  9 13  1  0
M  END
$$$$
15
     RDKit          3D

 13 12  0  0  0  0  0  0  0  0999 V2000
   23.1033   11.3273   13.8783 O   0  0  0  0  0  0  0  0  0  0  0  0
   23.4504   10.7655   12.5961 C   0  0  2  0  0  0  0  0  0  0  0  0
   23.3020    9.3592   12.4684 C   0  0  1  0  0  0  0  0  0  0  0  0
   24.6134   11.3231   12.0977 C   0  0  0  0  0  0  0  0  0  0  0  0
   22.2605    8.8220   11.6915 C   0  0  1  0  0  0  0  0  0  0  0  0
   24.3793    8.7476   12.6366 O   0  0  0  0  0  0  0  0  0  0  0  0
   22.5438    9.0738   10.2538 C   0  0  0  0  0  0  0  0  0  0  0  0
   22.2418    7.3094   11.8883 O   0  0  0  0  0  0  0  0  0  0  0  0
   21.5198    6.8998   13.1405 C   0  0  0  0  0  0  0  0  0  0  0  0
   22.3975    6.1256   13.9668 C   0  0  0  0  0  0  0  0  0  0  0  0
   22.1169    8.3358    9.2868 O   0  0  0  0  0  0  0  0  0  0  0  0
   23.4490    5.2926   13.1903 O   0  0  0  0  0  0  0  0  0  0  0  0
   25.3918   11.9058   13.0020 O   0  0  0  0  0  0  0  0  0  0  0  0
  2  1  1  1
  2  3  1  0
  2  4  1  0
  3  5  1  0
  3  6  1  6
  5  7  1  6
  5  8  1  0
  8  9  1  0
  9 10  1  0
  7 11  1  0
 10 12  1  0
  4 13  1  0
M  END
$$$$
16
     RDKit          3D

 13 14  0  0  0  0  0  0  0  0999 V2000
   20.8573    6.9514   13.6202 O   0  0  0  0  0  0  0  0  0  0  0  0
   22.0867    6.8578   13.1553 C   0  0  0  0  0  0  0  0  0  0  0  0
   22.9307    6.0591   13.7500 C   0  0  0  0  0  0  0  0  0  0  0  0
   22.5844    7.9247   12.2539 N   0  0  0  0  0  0  0  0  0  0  0  0
   22.6628    9.3116   12.3345 C   0  0  2  0  0  0  0  0  0  0  0  0
   23.0331    9.9125   11.0711 C   0  0  1  0  0  0  0  0  0  0  0  0
   22.8234    9.9888   13.4151 O   0  0  0  0  0  0  0  0  0  0  0  0
   23.2859   11.2781   13.0002 C   0  0  2  0  0  0  0  0  0  0  0  0
   23.5942   11.2477   11.5969 C   0  0  1  0  0  0  0  0  0  0  0  0
   24.9071   11.3588   10.9839 O   0  0  0  0  0  0  0  0  0  0  0  0
   25.2712   10.3823   10.2034 C   0  0  0  0  0  0  0  0  0  0  0  0
   24.1880    9.3097   10.3930 O   0  0  0  0  0  0  0  0  0  0  0  0
   24.6182   11.5878   13.6408 O   0  0  0  0  0  0  0  0  0  0  0  0
  1  2  2  0
  2  3  1  0
  2  4  1  0
  5  4  1  1
  5  6  1  0
  5  7  1  0
  7  8  1  0
  6  9  1  0
  8  9  1  0
  9 10  1  1
 10 11  1  0
  6 12  1  1
 11 12  1  0
  8 13  1  1
M  END
$$$$
17
     RDKit          3D

 13 12  0  0  0  0  0  0  0  0999 V2000
   23.8320   11.8126   13.6464 O   0  0  0  0  0  0  0  0  0  0  0  0
   24.5328   11.5610   12.5175 C   0  0  0  0  0  0  0  0  0  0  0  0
   25.6959   11.6435   12.4588 O   0  0  0  0  0  0  0  0  0  0  0  0
   23.9276   10.3078   11.7524 C   0  0  2  0  0  0  0  0  0  0  0  0
   24.0624   10.3248   10.4083 C   0  0  0  0  0  0  0  0  0  0  0  0
   22.6776    9.8251   12.2820 C   0  0  0  0  0  0  0  0  0  0  0  0
   22.8026    8.9513   13.4426 O   0  0  0  0  0  0  0  0  0  0  0  0
   22.5567    7.5360   13.0080 C   0  0  0  0  0  0  0  0  0  0  0  0
   21.8361    6.8011   13.8337 O   0  0  0  0  0  0  0  0  0  0  0  0
   23.5738    9.3280    9.5901 C   0  0  0  0  0  0  0  0  0  0  0  0
   24.0265    9.1880    8.2745 C   0  0  0  0  0  0  0  0  0  0  0  0
   22.4777    8.5458    9.8706 O   0  0  0  0  0  0  0  0  0  0  0  0
   23.7108   10.0692    7.3481 O   0  0  0  0  0  0  0  0  0  0  0  0
  1  2  1  0
  2  3  2  0
  2  4  1  0
  4  5  1  6
  4  6  1  0
  6  7  1  0
  7  8  1  0
  8  9  2  0
  5 10  1  0
 10 11  1  0
 10 12  2  0
 11 13  1  0
M  END
$$$$
18
     RDKit          3D

 13 13  0  0  0  0  0  0  0  0999 V2000
   23.1349    6.2818   13.4179 C   0  0  0  0  0  0  0  0  0  0  0  0
   22.3199    7.3876   13.2082 C   0  0  0  0  0  0  0  0  0  0  0  0
   22.6888    8.5397   12.4785 C   0  0  2  0  0  0  0  0  0  0  0  0
   22.7566    5.1132   13.9405 C   0  0  0  0  0  0  0  0  0  0  0  0
   22.8116    8.5385   11.0605 N   0  0  0  0  0  0  0  0  0  0  0  0
   23.2350    9.6432   13.1840 N   0  0  0  0  0  0  0  0  0  0  0  0
   22.2362    7.7480   10.1561 C   0  0  0  0  0  0  0  0  0  0  0  0
   23.6166   10.6588   12.2686 C   0  0  1  0  0  0  0  0  0  0  0  0
   22.4151    8.3086    8.9501 N   0  0  0  0  0  0  0  0  0  0  0  0
   24.1467   11.8392   12.5821 C   0  0  0  0  0  0  0  0  0  0  0  0
   23.6557    9.7228   10.9875 C   0  0  0  0  0  0  0  0  0  0  0  0
   23.9959   12.2268   13.8580 O   0  0  0  0  0  0  0  0  0  0  0  0
   24.9827   12.3795   11.8009 O   0  0  0  0  0  0  0  0  0  0  0  0
  1  2  1  0
  3  2  1  1
  1  4  1  0
  3  5  1  0
  3  6  1  0
  5  7  1  0
  6  8  1  0
  7  9  1  0
  8 10  1  1
  5 11  1  0
  8 11  1  0
 10 12  1  0
 10 13  2  0
M  END
$$$$
19
     RDKit          3D

 13 13  0  0  0  0  0  0  0  0999 V2000
   23.1033   11.3273   13.8783 O   0  0  0  0  0  0  0  0  0  0  0  0
   23.9586   11.3180   12.7844 C   0  0  0  0  0  0  0  0  0  0  0  0
   24.9594   11.9381   12.7405 O   0  0  0  0  0  0  0  0  0  0  0  0
   23.6585   10.2711   11.7545 C   0  0  2  0  0  0  0  0  0  0  0  0
   23.8614   10.6049   10.4234 C   0  0  1  0  0  0  0  0  0  0  0  0
   22.9925    9.0999   12.1586 C   0  0  1  0  0  0  0  0  0  0  0  0
   22.5033    8.2336   11.1389 C   0  0  0  0  0  0  0  0  0  0  0  0
   24.6027   11.7956   10.0040 C   0  0  0  0  0  0  0  0  0  0  0  0
   22.7597    8.5815   13.4749 O   0  0  0  0  0  0  0  0  0  0  0  0
   23.6208    9.6039    9.5302 C   0  0  2  0  0  0  0  0  0  0  0  0
   23.8659    9.8202    8.1468 O   0  0  0  0  0  0  0  0  0  0  0  0
   22.7061    8.6057    9.9823 C   0  0  1  0  0  0  0  0  0  0  0  0
   22.0574    7.8997    8.7985 O   0  0  0  0  0  0  0  0  0  0  0  0
  1  2  1  0
  2  3  2  0
  4  2  1  1
  4  5  1  0
  4  6  1  0
  6  7  1  0
  5  8  1  1
  6  9  1  1
  5 10  1  0
 10 11  1  6
  7 12  1  0
 10 12  1  0
 12 13  1  6
M  END
$$$$
2
     RDKit          3D

 11 11  0  0  0  0  0  0  0  0999 V2000
   22.5823    7.2262   13.5957 O   0  0  0  0  0  0  0  0  0  0  0  0
   22.8152    7.7170   12.5763 C   0  0  0  0  0  0  0  0  0  0  0  0
   22.0383    7.7553   11.5442 N   0  0  0  0  0  0  0  0  0  0  0  0
   23.3916    9.2689   12.7826 C   0  0  0  0  0  0  0  0  0  0  0  0
   23.3938    9.9932   11.6712 C   0  0  0  0  0  0  0  0  0  0  0  0
   22.7013    9.6263   10.5242 C   0  0  0  0  0  0  0  0  0  0  0  0
   22.0948    8.6772   10.5339 C   0  0  0  0  0  0  0  0  0  0  0  0
   24.2783   11.2885   11.9171 C   0  0  0  0  0  0  0  0  0  0  0  0
   24.3115   11.8446   13.1189 O   0  0  0  0  0  0  0  0  0  0  0  0
   21.5582    8.4063    9.3310 O   0  0  0  0  0  0  0  0  0  0  0  0
   24.9283   11.7757   10.8957 O   0  0  0  0  0  0  0  0  0  0  0  0
  1  2  2  0
  2  3  1  0
  2  4  1  0
  4  5  1  0
  5  6  1  0
  3  7  1  0
  6  7  1  0
  5  8  1  0
  8  9  1  0
  7 10  2  0
  8 11  2  0
M  END
$$$$
20
     RDKit          3D

 14 14  0  0  0  0  0  0  0  0999 V2000
   23.0972    5.7451   13.7730 O   0  0  0  0  0  0  0  0  0  0  0  0
   22.7330    7.0779   13.2705 C   0  0  0  0  0  0  0  0  0  0  0  0
   22.6717    7.5067   12.0857 C   0  0  2  0  0  0  0  0  0  0  0  0
   22.4718    8.9517   11.8160 C   0  0  2  0  0  0  0  0  0  0  0  0
   22.7894    9.4160   10.4177 C   0  0  2  0  0  0  0  0  0  0  0  0
   23.4616    9.7354   12.6462 O   0  0  0  0  0  0  0  0  0  0  0  0
   21.3562    7.3022   11.2836 O   0  0  0  0  0  0  0  0  0  0  0  0
   23.7365   11.0513   12.2605 C   0  0  2  0  0  0  0  0  0  0  0  0
   24.2500   11.1287   10.8881 C   0  0  1  0  0  0  0  0  0  0  0  0
   25.4287   10.3843   10.8468 O   0  0  0  0  0  0  0  0  0  0  0  0
   23.3043   10.4392   10.0800 C   0  0  1  0  0  0  0  0  0  0  0  0
   22.0534    8.4954    9.6314 O   0  0  0  0  0  0  0  0  0  0  0  0
   24.6895   11.5148   13.3905 O   0  0  0  0  0  0  0  0  0  0  0  0
   23.5573   10.6627    8.7808 O   0  0  0  0  0  0  0  0  0  0  0  0
  1  2  1  0
  2  3  1  0
  3  4  1  0
  4  5  1  0
  4  6  1  1
  3  7  1  6
  6  8  1  0
  8  9  1  0
  9 10  1  1
  5 11  1  0
  9 11  1  0
  5 12  1  6
  8 13  1  1
 11 14  1  6
M  END
$$$$
21
     RDKit          3D

 14 14  0  0  0  0  0  0  0  0999 V2000
   26.0226    6.8146    6.7977 O   0  0  0  0  0  0  0  0  0  0  0  0
   26.2301    8.0367    7.2484 C   0  0  2  0  0  0  0  0  0  0  0  0
   27.2549    8.3387    8.0956 C   0  0  0  0  0  0  0  0  0  0  0  0
   27.3588    9.5347    8.8676 C   0  0  0  0  0  0  0  0  0  0  0  0
   25.4485    9.1906    7.0752 C   0  0  0  0  0  0  0  0  0  0  0  0
   26.3721   10.4161    8.6086 C   0  0  1  0  0  0  0  0  0  0  0  0
   26.5176   11.7083    9.3988 C   0  0  0  0  0  0  0  0  0  0  0  0
   25.3876   10.3523    7.7782 C   0  0  0  0  0  0  0  0  0  0  0  0
   27.0497   12.6112    9.2428 O   0  0  0  0  0  0  0  0  0  0  0  0
   25.7908   11.5733   10.6721 N   0  0  0  0  0  0  0  0  0  0  0  0
   25.7698   12.6470   11.6509 C   0  0  1  0  0  0  0  0  0  0  0  0
   26.4419   12.0914   12.8781 C   0  0  0  0  0  0  0  0  0  0  0  0
   25.6359   12.4493   14.0602 O   0  0  0  0  0  0  0  0  0  0  0  0
   26.3388   13.8237   11.4212 O   0  0  0  0  0  0  0  0  0  0  0  0
  2  1  1  1
  2  3  1  0
  3  4  1  0
  2  5  1  0
  4  6  1  0
  6  7  1  6
  5  8  1  0
  6  8  1  0
  7  9  2  0
  7 10  1  0
 10 11  1  0
 11 12  1  0
 12 13  1  0
 11 14  1  6
M  END
$$$$
22
     RDKit          3D

 15 15  0  0  0  0  0  0  0  0999 V2000
   22.5823    7.2262   13.5957 O   0  0  0  0  0  0  0  0  0  0  0  0
   22.8152    7.7170   12.5763 C   0  0  0  0  0  0  0  0  0  0  0  0
   22.0383    7.7553   11.5442 N   0  0  0  0  0  0  0  0  0  0  0  0
   22.1275    8.6786   10.5349 C   0  0  0  0  0  0  0  0  0  0  0  0
   23.6963    8.9993   12.7646 C   0  0  0  0  0  0  0  0  0  0  0  0
   21.5470    8.5148    9.3989 O   0  0  0  0  0  0  0  0  0  0  0  0
   22.9770    9.8009   10.6937 N   0  0  0  0  0  0  0  0  0  0  0  0
   23.6141    9.9702   11.7479 C   0  0  1  0  0  0  0  0  0  0  0  0
   24.2535   11.2189   12.1613 O   0  0  0  0  0  0  0  0  0  0  0  0
   24.0788   11.7578   13.4499 C   0  0  0  0  0  0  0  0  0  0  0  0
   23.3818   10.8213    9.8123 C   0  0  0  0  0  0  0  0  0  0  0  0
   24.7641   10.6419    9.2867 C   0  0  0  0  0  0  0  0  0  0  0  0
   25.0654    9.4862    8.5460 C   0  0  0  0  0  0  0  0  0  0  0  0
   24.7551    9.4330    7.3250 O   0  0  0  0  0  0  0  0  0  0  0  0
   25.6124    8.4966    9.0939 O   0  0  0  0  0  0  0  0  0  0  0  0
  1  2  2  0
  2  3  1  0
  3  4  1  0
  2  5  1  0
  4  6  2  0
  4  7  1  0
  5  8  1  0
  7  8  1  0
  8  9  1  1
  9 10  1  0
  7 11  1  0
 11 12  1  0
 12 13  1  0
 13 14  2  0
 13 15  1  0
M  END
$$$$
23
     RDKit          3D

 15 16  0  0  0  0  0  0  0  0999 V2000
   22.5823    7.2262   13.5957 O   0  0  0  0  0  0  0  0  0  0  0  0
   22.8152    7.7170   12.5763 C   0  0  0  0  0  0  0  0  0  0  0  0
   22.0383    7.7553   11.5442 N   0  0  0  0  0  0  0  0  0  0  0  0
   22.1275    8.6786   10.5349 C   0  0  0  0  0  0  0  0  0  0  0  0
   23.6963    8.9993   12.7646 C   0  0  0  0  0  0  0  0  0  0  0  0
   21.5470    8.5148    9.3989 O   0  0  0  0  0  0  0  0  0  0  0  0
   22.9770    9.8009   10.6937 N   0  0  0  0  0  0  0  0  0  0  0  0
   23.0658   10.7733    9.6689 C   0  0  0  0  0  0  0  0  0  0  0  0
   23.5705   10.0586   11.9430 C   0  0  2  0  0  0  0  0  0  0  0  0
   24.7241   10.9638   11.8458 C   0  0  1  0  0  0  0  0  0  0  0  0
   24.6221   11.9015   10.8258 C   0  0  1  0  0  0  0  0  0  0  0  0
   25.9702   12.7193   10.8067 O   0  0  0  0  0  0  0  0  0  0  0  0
   25.4303   11.0901   13.0326 O   0  0  0  0  0  0  0  0  0  0  0  0
   24.2133   11.5458    9.6103 C   0  0  1  0  0  0  0  0  0  0  0  0
   25.2233   10.8130    8.7615 O   0  0  0  0  0  0  0  0  0  0  0  0
  1  2  2  0
  2  3  1  0
  3  4  1  0
  2  5  1  0
  4  6  2  0
  4  7  1  0
  7  8  1  0
  9  5  1  6
  7  9  1  0
  9 10  1  0
 10 11  1  0
 11 12  1  6
 10 13  1  1
  8 14  1  0
 11 14  1  0
 14 15  1  1
M  END
$$$$
24
     RDKit          3D

 15 15  0  0  0  0  0  0  0  0999 V2000
   21.5836    6.2491   13.3594 C   0  0  0  0  0  0  0  0  0  0  0  0
   22.7201    5.8103   13.5961 C   0  0  0  0  0  0  0  0  0  0  0  0
   20.6172    6.0071   13.8610 C   0  0  0  0  0  0  0  0  0  0  0  0
   19.6820    5.1759   13.2470 C   0  0  2  0  0  0  0  0  0  0  0  0
   18.5794    5.0419   13.8186 C   0  0  0  0  0  0  0  0  0  0  0  0
   21.4419    7.2714   12.2427 C   0  0  0  0  0  0  0  0  0  0  0  0
   21.8882    8.5704   12.4854 C   0  0  0  0  0  0  0  0  0  0  0  0
   23.3406    8.8661   12.0295 C   0  0  2  0  0  0  0  0  0  0  0  0
   24.2133    9.2111   13.0661 O   0  0  0  0  0  0  0  0  0  0  0  0
   23.2686   10.2270   11.1285 C   0  0  0  0  0  0  0  0  0  0  0  0
   22.8112    4.4273   13.0227 C   0  0  0  0  0  0  0  0  0  0  0  0
   20.1156    4.5451   12.2179 C   0  0  0  0  0  0  0  0  0  0  0  0
   21.5308    3.8552   12.3049 C   0  0  0  0  0  0  0  0  0  0  0  0
   24.0519   10.0670    9.9987 O   0  0  0  0  0  0  0  0  0  0  0  0
   23.2370   11.3110   11.6472 O   0  0  0  0  0  0  0  0  0  0  0  0
  1  2  1  0
  1  3  1  0
  3  4  1  0
  4  5  1  1
  1  6  1  0
  6  7  1  0
  7  8  1  0
  8  9  1  1
  8 10  1  0
  2 11  1  0
  4 12  1  0
 11 13  1  0
 12 13  1  0
 10 14  1  0
 10 15  2  0
M  END
$$$$
25
     RDKit          3D

 15 15  0  0  0  0  0  0  0  0999 V2000
   22.5823    7.2262   13.5957 O   0  0  0  0  0  0  0  0  0  0  0  0
   22.8152    7.7170   12.5763 C   0  0  0  0  0  0  0  0  0  0  0  0
   22.0383    7.7553   11.5442 N   0  0  0  0  0  0  0  0  0  0  0  0
   23.9056    8.7457   12.5441 C   0  0  0  0  0  0  0  0  0  0  0  0
   23.8390    9.5054   11.4270 C   0  0  2  0  0  0  0  0  0  0  0  0
   22.3821    8.7284   10.5360 C   0  0  0  0  0  0  0  0  0  0  0  0
   23.1885    9.5657   10.4699 N   0  0  0  0  0  0  0  0  0  0  0  0
   25.0321   10.3359   11.3564 O   0  0  0  0  0  0  0  0  0  0  0  0
   21.3404    8.6052    9.5184 O   0  0  0  0  0  0  0  0  0  0  0  0
   25.0302   11.5364   12.2316 C   0  0  1  0  0  0  0  0  0  0  0  0
   23.9959   11.5916   13.0717 C   0  0  0  0  0  0  0  0  0  0  0  0
   26.3244   11.6884   12.7883 C   0  0  0  0  0  0  0  0  0  0  0  0
   22.8403   11.8819   12.9086 O   0  0  0  0  0  0  0  0  0  0  0  0
   27.2959   12.4781   12.0892 O   0  0  0  0  0  0  0  0  0  0  0  0
   24.3323   11.6743   14.4248 O   0  0  0  0  0  0  0  0  0  0  0  0
  1  2  2  0
  2  3  1  0
  2  4  1  0
  4  5  1  0
  3  6  1  0
  5  7  1  0
  6  7  1  0
  5  8  1  6
  6  9  2  0
  8 10  1  0
 10 11  1  0
 10 12  1  1
 11 13  2  0
 12 14  1  0
 11 15  1  0
M  END
$$$$
26
     RDKit          3D

 15 16  0  0  0  0  0  0  0  0999 V2000
   25.7896    6.5384    6.4570 O   0  0  0  0  0  0  0  0  0  0  0  0
   26.2229    7.7215    7.0027 C   0  0  0  0  0  0  0  0  0  0  0  0
   25.2335    8.5904    7.4753 C   0  0  0  0  0  0  0  0  0  0  0  0
   25.5381    9.5456    8.4819 C   0  0  1  0  0  0  0  0  0  0  0  0
   25.4403   10.9753    8.1187 C   0  0  0  0  0  0  0  0  0  0  0  0
   25.7389    9.2150    9.7430 O   0  0  0  0  0  0  0  0  0  0  0  0
   25.1779   10.1639   10.6460 C   0  0  2  0  0  0  0  0  0  0  0  0
   25.2701   11.5517   10.4028 C   0  0  1  0  0  0  0  0  0  0  0  0
   25.4225   11.8915    9.0529 C   0  0  0  0  0  0  0  0  0  0  0  0
   24.6352    9.7118   11.8006 N   0  0  0  0  0  0  0  0  0  0  0  0
   24.9058   12.3703   11.4037 C   0  0  2  0  0  0  0  0  0  0  0  0
   24.2045   10.5066   12.7630 C   0  0  0  0  0  0  0  0  0  0  0  0
   25.3223   13.6615   11.2624 O   0  0  0  0  0  0  0  0  0  0  0  0
   24.4517   11.9000   12.5911 C   0  0  2  0  0  0  0  0  0  0  0  0
   24.1101   12.7549   13.5797 O   0  0  0  0  0  0  0  0  0  0  0  0
  1  2  1  0
  2  3  1  0
  4  3  1  1
  4  5  1  0
  4  6  1  0
  6  7  1  0
  7  8  1  0
  5  9  1  0
  8  9  1  6
  7 10  1  1
  8 11  1  0
 10 12  1  0
 11 13  1  1
 11 14  1  0
 12 14  1  0
 14 15  1  6
M  END
$$$$
27
     RDKit          3D

 15 15  0  0  0  0  0  0  0  0999 V2000
   24.1941   12.4771   13.7587 O   0  0  0  0  0  0  0  0  0  0  0  0
   24.8291   11.8892   12.7425 C   0  0  0  0  0  0  0  0  0  0  0  0
   26.0037   12.2811   12.3665 O   0  0  0  0  0  0  0  0  0  0  0  0
   24.1953   10.7531   12.1229 C   0  0  1  0  0  0  0  0  0  0  0  0
   23.3628    9.9012   12.7355 C   0  0  0  0  0  0  0  0  0  0  0  0
   24.2839   10.8925   10.7528 C   0  0  0  0  0  0  0  0  0  0  0  0
   22.8581    8.8173   11.8441 C   0  0  2  0  0  0  0  0  0  0  0  0
   23.9079   10.0024    9.9906 C   0  0  2  0  0  0  0  0  0  0  0  0
   24.0319    9.7867    8.5252 C   0  0  0  0  0  0  0  0  0  0  0  0
   22.9151    8.9639   10.5594 C   0  0  1  0  0  0  0  0  0  0  0  0
   22.3838    8.1143    9.6349 O   0  0  0  0  0  0  0  0  0  0  0  0
   21.9948    7.8258   12.4888 C   0  0  0  0  0  0  0  0  0  0  0  0
   24.7202   10.7429    7.9245 O   0  0  0  0  0  0  0  0  0  0  0  0
   23.6488    8.8920    7.7729 O   0  0  0  0  0  0  0  0  0  0  0  0
   22.2893    7.4385   13.7307 O   0  0  0  0  0  0  0  0  0  0  0  0
  1  2  2  0
  2  3  1  0
  4  2  1  1
  4  5  1  0
  4  6  1  0
  5  7  1  0
  6  8  1  0
  8  9  1  6
  7 10  1  0
  8 10  1  0
 10 11  1  6
  7 12  1  1
  9 13  2  0
  9 14  1  0
 12 15  2  0
M  END
$$$$
28
     RDKit          3D

 15 15  0  0  0  0  0  0  0  0999 V2000
   24.1941   12.4771   13.7587 O   0  0  0  0  0  0  0  0  0  0  0  0
   24.8291   11.8892   12.7425 C   0  0  0  0  0  0  0  0  0  0  0  0
   26.0037   12.2811   12.3665 O   0  0  0  0  0  0  0  0  0  0  0  0
   24.1953   10.7531   12.1229 C   0  0  1  0  0  0  0  0  0  0  0  0
   23.3628    9.9012   12.7355 C   0  0  0  0  0  0  0  0  0  0  0  0
   24.2839   10.8925   10.7528 C   0  0  0  0  0  0  0  0  0  0  0  0
   22.8581    8.8173   11.8441 C   0  0  2  0  0  0  0  0  0  0  0  0
   23.9079   10.0024    9.9906 C   0  0  2  0  0  0  0  0  0  0  0  0
   24.0319    9.7867    8.5252 C   0  0  0  0  0  0  0  0  0  0  0  0
   22.9151    8.9639   10.5594 C   0  0  1  0  0  0  0  0  0  0  0  0
   22.3838    8.1143    9.6349 O   0  0  0  0  0  0  0  0  0  0  0  0
   21.9948    7.8258   12.4888 C   0  0  0  0  0  0  0  0  0  0  0  0
   24.7202   10.7429    7.9245 O   0  0  0  0  0  0  0  0  0  0  0  0
   23.8509    8.8438    7.8365 O   0  0  0  0  0  0  0  0  0  0  0  0
   22.2961    7.4363   13.7294 O   0  0  0  0  0  0  0  0  0  0  0  0
  1  2  2  0
  2  3  1  0
  4  2  1  1
  4  5  1  0
  4  6  1  0
  5  7  1  0
  6  8  1  0
  8  9  1  6
  7 10  1  0
  8 10  1  0
 10 11  1  6
  7 12  1  1
  9 13  2  0
  9 14  1  0
 12 15  1  0
M  END
$$$$
29
     RDKit          3D

 16 17  0  0  0  0  0  0  0  0999 V2000
   22.5823    7.2262   13.5957 O   0  0  0  0  0  0  0  0  0  0  0  0
   22.2253    8.0902   12.7154 C   0  0  0  0  0  0  0  0  0  0  0  0
   21.2478    7.8624   11.9115 O   0  0  0  0  0  0  0  0  0  0  0  0
   23.3110    9.0863   12.1382 C   0  0  1  0  0  0  0  0  0  0  0  0
   22.7514   10.0105   11.2107 O   0  0  0  0  0  0  0  0  0  0  0  0
   23.3416   10.0753    9.9320 C   0  0  1  0  0  0  0  0  0  0  0  0
   24.3377   11.0754    9.9521 C   0  0  2  0  0  0  0  0  0  0  0  0
   25.1651   11.0047    8.7770 O   0  0  0  0  0  0  0  0  0  0  0  0
   24.7958   10.0526    7.9201 C   0  0  1  0  0  0  0  0  0  0  0  0
   23.6526    9.3520    8.7126 C   0  0  0  0  0  0  0  0  0  0  0  0
   24.0007   10.1522   12.8437 C   0  0  2  0  0  0  0  0  0  0  0  0
   24.4703   10.7631    6.8324 C   0  0  0  0  0  0  0  0  0  0  0  0
   23.1558   11.1589   13.3871 O   0  0  0  0  0  0  0  0  0  0  0  0
   23.2022   10.6212    6.2309 O   0  0  0  0  0  0  0  0  0  0  0  0
   25.5428   11.0699   10.9828 C   0  0  0  0  0  0  0  0  0  0  0  0
   25.1240   11.0342   12.2526 C   0  0  0  0  0  0  0  0  0  0  0  0
  1  2  2  0
  2  3  1  0
  4  2  1  1
  4  5  1  0
  5  6  1  0
  6  7  1  0
  7  8  1  6
  8  9  1  0
  6 10  1  1
  9 10  1  0
  4 11  1  0
  9 12  1  6
 11 13  1  6
 12 14  1  0
  7 15  1  0
 11 16  1  0
 15 16  2  0
M  END
$$$$
3
     RDKit          3D

 11 11  0  0  0  0  0  0  0  0999 V2000
   21.5424    8.4662    8.8819 O   0  0  0  0  0  0  0  0  0  0  0  0
   22.2195    9.0191   10.0087 C   0  0  1  0  0  0  0  0  0  0  0  0
   22.1154    8.4099   11.3200 C   0  0  2  0  0  0  0  0  0  0  0  0
   23.7282    9.1524    9.6199 C   0  0  2  0  0  0  0  0  0  0  0  0
   22.8729    9.0650   12.4425 C   0  0  0  0  0  0  0  0  0  0  0  0
   24.2126    9.4879   12.1479 O   0  0  0  0  0  0  0  0  0  0  0  0
   22.3605    9.0061   13.6496 O   0  0  0  0  0  0  0  0  0  0  0  0
   24.4499   10.0174   10.8179 C   0  0  1  0  0  0  0  0  0  0  0  0
   25.8945   10.1138   10.8451 O   0  0  0  0  0  0  0  0  0  0  0  0
   24.1649    9.8914    8.4990 O   0  0  0  0  0  0  0  0  0  0  0  0
   22.5714    7.0228   11.1941 O   0  0  0  0  0  0  0  0  0  0  0  0
  2  1  1  6
  2  3  1  0
  2  4  1  0
  3  5  1  0
  5  6  1  0
  5  7  2  0
  4  8  1  0
  6  8  1  0
  8  9  1  6
  4 10  1  6
  3 11  1  6
M  END
$$$$
30
     RDKit          3D

 16 15  0  0  0  0  0  0  0  0999 V2000
   22.7509    5.5965   13.5219 C   0  0  0  0  0  0  0  0  0  0  0  0
   22.3111    6.9013   13.3179 C   0  0  0  0  0  0  0  0  0  0  0  0
   22.2338    4.6565   13.5749 C   0  0  0  0  0  0  0  0  0  0  0  0
   23.1616    8.0646   12.9856 C   0  0  0  0  0  0  0  0  0  0  0  0
   21.2869    4.3386   12.6829 C   0  0  0  0  0  0  0  0  0  0  0  0
   20.6711    3.1103   12.7916 C   0  0  0  0  0  0  0  0  0  0  0  0
   22.9884    8.8779   12.1074 C   0  0  0  0  0  0  0  0  0  0  0  0
   22.1344    8.7510   10.9323 C   0  0  0  0  0  0  0  0  0  0  0  0
   21.8315    7.6179   10.4197 O   0  0  0  0  0  0  0  0  0  0  0  0
   23.7040   10.2171   12.2438 C   0  0  0  0  0  0  0  0  0  0  0  0
   21.7289    9.8251   10.2664 O   0  0  0  0  0  0  0  0  0  0  0  0
   20.9239    2.1216   13.6585 C   0  0  0  0  0  0  0  0  0  0  0  0
   23.1441   11.2667   12.9061 C   0  0  0  0  0  0  0  0  0  0  0  0
   24.1584   12.2420   13.2995 C   0  0  0  0  0  0  0  0  0  0  0  0
   24.2591   12.8299   14.3888 O   0  0  0  0  0  0  0  0  0  0  0  0
   24.9863   12.6751   12.2600 O   0  0  0  0  0  0  0  0  0  0  0  0
  1  2  1  0
  1  3  1  0
  2  4  1  0
  3  5  1  0
  5  6  1  0
  4  7  2  3
  7  8  1  0
  8  9  1  0
  7 10  1  0
  8 11  2  0
  6 12  1  0
 10 13  1  0
 13 14  1  0
 14 15  1  0
 14 16  2  0
M  END
$$$$
31
     RDKit          3D

 16 16  0  0  0  0  0  0  0  0999 V2000
   23.1349    6.2818   13.4179 O   0  0  0  0  0  0  0  0  0  0  0  0
   22.6013    7.6079   13.0121 C   0  0  0  0  0  0  0  0  0  0  0  0
   22.9820    8.0857   11.7813 N   0  0  0  0  0  0  0  0  0  0  0  0
   21.4247    8.0474   13.5631 C   0  0  0  0  0  0  0  0  0  0  0  0
   22.1828    8.9089   10.9898 C   0  0  2  0  0  0  0  0  0  0  0  0
   24.2925    8.8848   11.9631 C   0  0  0  0  0  0  0  0  0  0  0  0
   21.5916    8.2026    9.8446 O   0  0  0  0  0  0  0  0  0  0  0  0
   24.2277    9.7698   11.0326 C   0  0  2  0  0  0  0  0  0  0  0  0
   24.7605   11.1962   11.3902 C   0  0  0  0  0  0  0  0  0  0  0  0
   22.9961    9.8542   10.2780 C   0  0  0  0  0  0  0  0  0  0  0  0
   22.7981   10.5998    9.2132 C   0  0  0  0  0  0  0  0  0  0  0  0
   25.1124   11.3213   12.8326 O   0  0  0  0  0  0  0  0  0  0  0  0
   24.9796   12.4392   13.5441 C   0  0  0  0  0  0  0  0  0  0  0  0
   24.2175   12.3780   14.4490 O   0  0  0  0  0  0  0  0  0  0  0  0
   23.6555   11.0256    8.2935 O   0  0  0  0  0  0  0  0  0  0  0  0
   25.8597   13.4499   13.3953 O   0  0  0  0  0  0  0  0  0  0  0  0
  1  2  2  0
  2  3  1  0
  2  4  1  0
  3  5  1  0
  3  6  1  0
  5  7  1  6
  6  8  1  0
  8  9  1  1
  5 10  1  0
  8 10  1  0
 10 11  2  3
  9 12  1  0
 12 13  1  0
 13 14  1  0
 11 15  1  0
 13 16  2  0
M  END
$$$$
32
     RDKit          3D

 16 16  0  0  0  0  0  0  0  0999 V2000
   23.1033   11.3273   13.8783 O   0  0  0  0  0  0  0  0  0  0  0  0
   23.9586   11.3180   12.7844 C   0  0  0  0  0  0  0  0  0  0  0  0
   24.9594   11.9381   12.7405 O   0  0  0  0  0  0  0  0  0  0  0  0
   23.7734   10.0192   12.0236 C   0  0  1  0  0  0  0  0  0  0  0  0
   22.8539    9.0877   12.4424 C   0  0  0  0  0  0  0  0  0  0  0  0
   22.1267    8.2880   11.6711 C   0  0  1  0  0  0  0  0  0  0  0  0
   22.4145    8.4911   10.2294 C   0  0  0  0  0  0  0  0  0  0  0  0
   23.6134   10.6072   10.6679 C   0  0  1  0  0  0  0  0  0  0  0  0
   21.4296    7.0718   12.2473 N   0  0  0  0  0  0  0  0  0  0  0  0
   24.6375   11.3012   10.1312 N   0  0  0  0  0  0  0  0  0  0  0  0
   21.9505    6.5779   13.4010 C   0  0  0  0  0  0  0  0  0  0  0  0
   22.8555    7.1396   14.0621 O   0  0  0  0  0  0  0  0  0  0  0  0
   21.3359    5.4110   13.7096 C   0  0  0  0  0  0  0  0  0  0  0  0
   21.3592    4.3209   12.7168 C   0  0  0  0  0  0  0  0  0  0  0  0
   23.0954    9.6412    9.6873 C   0  0  0  0  0  0  0  0  0  0  0  0
   21.6979    7.7733    9.3683 O   0  0  0  0  0  0  0  0  0  0  0  0
  1  2  1  0
  2  3  2  0
  4  2  1  1
  4  5  1  0
  5  6  1  0
  6  7  1  0
  4  8  1  0
  6  9  1  1
  8 10  1  6
  9 11  1  0
 11 12  2  0
 11 13  1  0
 13 14  1  0
  7 15  1  0
  8 15  1  0
  7 16  2  0
M  END
$$$$
33
     RDKit          3D

 16 17  0  0  0  0  0  0  0  0999 V2000
   21.3345    7.1603   13.1831 O   0  0  0  0  0  0  0  0  0  0  0  0
   22.6871    7.2238   12.9853 C   0  0  0  0  0  0  0  0  0  0  0  0
   23.4793    6.6916   13.4174 O   0  0  0  0  0  0  0  0  0  0  0  0
   23.0258    8.6503   12.3441 C   0  0  2  0  0  0  0  0  0  0  0  0
   22.9932    8.7109   10.9806 N   0  0  0  0  0  0  0  0  0  0  0  0
   23.7660    9.6213   12.9718 N   0  0  0  0  0  0  0  0  0  0  0  0
   23.8444   10.7919   12.4018 C   0  0  2  0  0  0  0  0  0  0  0  0
   22.3321    7.7785   10.1206 C   0  0  0  0  0  0  0  0  0  0  0  0
   23.0923   10.0753   10.4943 C   0  0  1  0  0  0  0  0  0  0  0  0
   23.6307   11.0239   11.1587 C   0  0  0  0  0  0  0  0  0  0  0  0
   22.3535    8.4575    8.8580 N   0  0  0  0  0  0  0  0  0  0  0  0
   22.7924    9.9565    9.0401 C   0  0  0  0  0  0  0  0  0  0  0  0
   24.3673   11.8852   13.3760 C   0  0  0  0  0  0  0  0  0  0  0  0
   23.0738   10.7445    8.1316 O   0  0  0  0  0  0  0  0  0  0  0  0
   25.4607   12.4808   12.9473 O   0  0  0  0  0  0  0  0  0  0  0  0
   23.7434   12.1888   14.3366 O   0  0  0  0  0  0  0  0  0  0  0  0
  1  2  1  0
  2  3  2  0
  4  2  1  6
  4  5  1  0
  4  6  1  0
  6  7  1  0
  5  8  1  0
  5  9  1  0
  7 10  1  0
  9 10  1  6
  8 11  1  0
  9 12  1  0
 11 12  1  0
  7 13  1  6
 12 14  2  0
 13 15  2  0
 13 16  1  0
M  END
$$$$
34
     RDKit          3D

 16 16  0  0  0  0  0  0  0  0999 V2000
   23.1033   11.3273   13.8783 O   0  0  0  0  0  0  0  0  0  0  0  0
   23.4504   10.7655   12.5961 C   0  0  2  0  0  0  0  0  0  0  0  0
   23.3020    9.3592   12.4684 C   0  0  1  0  0  0  0  0  0  0  0  0
   24.6134   11.3231   12.0977 C   0  0  1  0  0  0  0  0  0  0  0  0
   22.2605    8.8220   11.6915 C   0  0  1  0  0  0  0  0  0  0  0  0
   24.3793    8.7476   12.6366 O   0  0  0  0  0  0  0  0  0  0  0  0
   22.5438    9.0738   10.2538 C   0  0  0  0  0  0  0  0  0  0  0  0
   22.2418    7.3094   11.8883 O   0  0  0  0  0  0  0  0  0  0  0  0
   21.5198    6.8998   13.1405 C   0  0  0  0  0  0  0  0  0  0  0  0
   25.4228   11.9302   13.0630 O   0  0  0  0  0  0  0  0  0  0  0  0
   23.2499   10.1040   10.0348 O   0  0  0  0  0  0  0  0  0  0  0  0
   22.1972    5.8858   13.8034 C   0  0  0  0  0  0  0  0  0  0  0  0
   22.0348    8.4091    9.2695 O   0  0  0  0  0  0  0  0  0  0  0  0
   23.6592    6.0302   14.0226 C   0  0  0  0  0  0  0  0  0  0  0  0
   24.3951   10.6529   10.6084 C   0  0  2  0  0  0  0  0  0  0  0  0
   25.5059    9.9684    9.9415 O   0  0  0  0  0  0  0  0  0  0  0  0
  2  1  1  1
  2  3  1  0
  2  4  1  0
  3  5  1  0
  3  6  1  6
  5  7  1  0
  5  8  1  6
  8  9  1  0
  4 10  1  1
  7 11  1  0
  9 12  1  0
  7 13  2  0
 12 14  1  0
  4 15  1  0
 11 15  1  0
 15 16  1  1
M  END
$$$$
35
     RDKit          3D

 16 17  0  0  0  0  0  0  0  0999 V2000
   23.8320   11.8126   13.6464 O   0  0  0  0  0  0  0  0  0  0  0  0
   24.5328   11.5610   12.5175 C   0  0  0  0  0  0  0  0  0  0  0  0
   25.6959   11.6435   12.4588 O   0  0  0  0  0  0  0  0  0  0  0  0
   23.9276   10.3078   11.7524 C   0  0  2  0  0  0  0  0  0  0  0  0
   24.0624   10.3248   10.4083 C   0  0  0  0  0  0  0  0  0  0  0  0
   22.6776    9.8251   12.2820 C   0  0  2  0  0  0  0  0  0  0  0  0
   22.8026    8.9513   13.4426 O   0  0  0  0  0  0  0  0  0  0  0  0
   22.5567    7.5360   13.0080 C   0  0  0  0  0  0  0  0  0  0  0  0
   21.8361    6.8011   13.8337 O   0  0  0  0  0  0  0  0  0  0  0  0
   23.5738    9.3280    9.5901 C   0  0  0  0  0  0  0  0  0  0  0  0
   24.0265    9.1880    8.2745 C   0  0  0  0  0  0  0  0  0  0  0  0
   22.4777    8.5458    9.8706 C   0  0  0  0  0  0  0  0  0  0  0  0
   22.1755    8.7197   11.2039 C   0  0  1  0  0  0  0  0  0  0  0  0
   24.8702    8.2712    7.9617 O   0  0  0  0  0  0  0  0  0  0  0  0
   22.8004    7.1828   11.7924 C   0  0  0  0  0  0  0  0  0  0  0  0
   23.5221    9.7238    7.3131 O   0  0  0  0  0  0  0  0  0  0  0  0
  1  2  1  0
  2  3  2  0
  4  2  1  6
  4  5  1  0
  4  6  1  0
  6  7  1  1
  7  8  1  0
  8  9  2  0
  5 10  1  0
 10 11  1  0
 10 12  2  0
  6 13  1  0
 12 13  1  0
 11 14  1  0
  8 15  1  0
 13 15  1  1
 11 16  2  0
M  END
$$$$
36
     RDKit          3D

 16 17  0  0  0  0  0  0  0  0999 V2000
   22.5823    7.2262   13.5957 O   0  0  0  0  0  0  0  0  0  0  0  0
   22.8152    7.7170   12.5763 C   0  0  0  0  0  0  0  0  0  0  0  0
   22.0383    7.7553   11.5442 N   0  0  0  0  0  0  0  0  0  0  0  0
   22.1275    8.6786   10.5349 C   0  0  0  0  0  0  0  0  0  0  0  0
   23.6963    8.9993   12.7646 C   0  0  0  0  0  0  0  0  0  0  0  0
   21.5470    8.5148    9.3989 O   0  0  0  0  0  0  0  0  0  0  0  0
   22.9770    9.8009   10.6937 N   0  0  0  0  0  0  0  0  0  0  0  0
   23.0658   10.7733    9.6689 C   0  0  1  0  0  0  0  0  0  0  0  0
   23.5705   10.0586   11.9430 C   0  0  2  0  0  0  0  0  0  0  0  0
   24.7241   10.9638   11.8458 C   0  0  1  0  0  0  0  0  0  0  0  0
   24.6221   11.9015   10.8258 C   0  0  1  0  0  0  0  0  0  0  0  0
   25.9702   12.7193   10.8067 O   0  0  0  0  0  0  0  0  0  0  0  0
   25.4303   11.0901   13.0326 O   0  0  0  0  0  0  0  0  0  0  0  0
   24.2133   11.5458    9.6103 C   0  0  2  0  0  0  0  0  0  0  0  0
   24.1788   12.6724    8.7515 O   0  0  0  0  0  0  0  0  0  0  0  0
   23.0913    9.9552    8.3752 O   0  0  0  0  0  0  0  0  0  0  0  0
  1  2  2  0
  2  3  1  0
  3  4  1  0
  2  5  1  0
  4  6  2  0
  4  7  1  0
  7  8  1  0
  9  5  1  6
  7  9  1  0
  9 10  1  0
 10 11  1  0
 11 12  1  6
 10 13  1  1
  8 14  1  0
 11 14  1  0
 14 15  1  6
  8 16  1  6
M  END
$$$$
37
     RDKit          3D

 16 15  0  0  0  0  0  0  0  0999 V2000
   24.1941   12.4771   13.7587 O   0  0  0  0  0  0  0  0  0  0  0  0
   25.4931   12.2084   13.5793 C   0  0  0  0  0  0  0  0  0  0  0  0
   25.8638   11.5787   12.3877 N   0  0  0  0  0  0  0  0  0  0  0  0
   26.7061   12.1008   11.4698 C   0  0  0  0  0  0  0  0  0  0  0  0
   24.9759   10.5295   11.9836 C   0  0  1  0  0  0  0  0  0  0  0  0
   23.6157   10.4960   12.4199 C   0  0  0  0  0  0  0  0  0  0  0  0
   26.4058   12.2647   14.5930 O   0  0  0  0  0  0  0  0  0  0  0  0
   25.2698   10.0272   10.6850 O   0  0  0  0  0  0  0  0  0  0  0  0
   24.5315   10.5803    9.5738 C   0  0  0  0  0  0  0  0  0  0  0  0
   24.9000    9.9172    8.2891 C   0  0  0  0  0  0  0  0  0  0  0  0
   24.9575   10.6352    7.2988 O   0  0  0  0  0  0  0  0  0  0  0  0
   24.8273    8.6139    8.1464 O   0  0  0  0  0  0  0  0  0  0  0  0
   23.0210    9.1087   12.0007 C   0  0  0  0  0  0  0  0  0  0  0  0
   22.5474    8.3838   13.0983 C   0  0  0  0  0  0  0  0  0  0  0  0
   22.4958    6.8975   12.9212 C   0  0  0  0  0  0  0  0  0  0  0  0
   21.8806    6.2708   13.9331 O   0  0  0  0  0  0  0  0  0  0  0  0
  1  2  2  0
  2  3  1  0
  3  4  1  0
  3  5  1  0
  5  6  1  6
  2  7  1  0
  5  8  1  0
  8  9  1  0
  9 10  1  0
 10 11  1  0
 10 12  2  0
  6 13  1  0
 13 14  1  0
 14 15  1  0
 15 16  1  0
M  END
$$$$
38
     RDKit          3D

 16 16  0  0  0  0  0  0  0  0999 V2000
   24.1941   12.4771   13.7587 O   0  0  0  0  0  0  0  0  0  0  0  0
   23.9099   11.5484   12.7758 C   0  0  2  0  0  0  0  0  0  0  0  0
   23.4176   10.3774   13.2010 C   0  0  0  0  0  0  0  0  0  0  0  0
   24.3094   11.9268   11.4905 C   0  0  1  0  0  0  0  0  0  0  0  0
   24.0475   10.9540   10.4462 C   0  0  0  0  0  0  0  0  0  0  0  0
   24.3911   11.1824    9.0758 O   0  0  0  0  0  0  0  0  0  0  0  0
   23.4215    9.6436   10.6440 C   0  0  0  0  0  0  0  0  0  0  0  0
   23.2034    8.7045    9.7301 O   0  0  0  0  0  0  0  0  0  0  0  0
   24.7832   12.9896   11.1256 O   0  0  0  0  0  0  0  0  0  0  0  0
   21.8044    8.2733    9.3962 C   0  0  0  0  0  0  0  0  0  0  0  0
   23.0523    9.3962   12.1161 C   0  0  1  0  0  0  0  0  0  0  0  0
   25.5759   10.5633    8.4676 C   0  0  0  0  0  0  0  0  0  0  0  0
   22.4012    8.1259   12.5389 C   0  0  0  0  0  0  0  0  0  0  0  0
   22.8533    7.1338   12.9991 O   0  0  0  0  0  0  0  0  0  0  0  0
   25.2830   10.1350    7.0960 C   0  0  0  0  0  0  0  0  0  0  0  0
   24.8793   11.0408    6.4032 O   0  0  0  0  0  0  0  0  0  0  0  0
  2  1  1  1
  2  3  1  0
  2  4  1  0
  4  5  1  0
  5  6  1  0
  5  7  1  0
  7  8  1  0
  4  9  1  6
  8 10  1  0
  3 11  1  0
  7 11  1  0
  6 12  1  0
 11 13  1  1
 13 14  1  0
 12 15  1  0
 15 16  1  0
M  END
$$$$
39
     RDKit          3D

 16 17  0  0  0  0  0  0  0  0999 V2000
   23.8320   11.8126   13.6464 O   0  0  0  0  0  0  0  0  0  0  0  0
   24.5328   11.5610   12.5175 C   0  0  0  0  0  0  0  0  0  0  0  0
   25.6959   11.6435   12.4588 O   0  0  0  0  0  0  0  0  0  0  0  0
   23.9276   10.3078   11.7524 C   0  0  2  0  0  0  0  0  0  0  0  0
   24.0624   10.3248   10.4083 C   0  0  0  0  0  0  0  0  0  0  0  0
   22.6776    9.8251   12.2820 C   0  0  2  0  0  0  0  0  0  0  0  0
   22.8026    8.9513   13.4426 O   0  0  0  0  0  0  0  0  0  0  0  0
   22.5567    7.5360   13.0080 C   0  0  0  0  0  0  0  0  0  0  0  0
   21.8361    6.8011   13.8337 O   0  0  0  0  0  0  0  0  0  0  0  0
   23.5738    9.3280    9.5901 C   0  0  0  0  0  0  0  0  0  0  0  0
   24.0265    9.1880    8.2745 C   0  0  0  0  0  0  0  0  0  0  0  0
   22.4777    8.5458    9.8706 C   0  0  0  0  0  0  0  0  0  0  0  0
   22.1755    8.7197   11.2039 C   0  0  1  0  0  0  0  0  0  0  0  0
   24.8702    8.2712    7.9617 O   0  0  0  0  0  0  0  0  0  0  0  0
   24.3171   10.3354    7.6079 O   0  0  0  0  0  0  0  0  0  0  0  0
   22.2451    7.3471   11.7242 N   0  0  0  0  0  0  0  0  0  0  0  0
  1  2  1  0
  2  3  2  0
  4  2  1  6
  4  5  1  0
  4  6  1  0
  6  7  1  1
  7  8  1  0
  8  9  2  0
  5 10  1  0
 10 11  1  0
 10 12  2  0
  6 13  1  0
 12 13  1  0
 11 14  1  0
 11 15  2  0
  8 16  1  0
 13 16  1  1
M  END
$$$$
4
     RDKit          3D

 11 10  0  0  0  0  0  0  0  0999 V2000
   20.8573    6.9514   13.6202 O   0  0  0  0  0  0  0  0  0  0  0  0
   22.0867    6.8578   13.1553 C   0  0  0  0  0  0  0  0  0  0  0  0
   22.9307    6.0591   13.7500 C   0  0  0  0  0  0  0  0  0  0  0  0
   22.6059    8.0144   12.4341 N   0  0  0  0  0  0  0  0  0  0  0  0
   22.7726    9.3759   12.5821 C   0  0  0  0  0  0  0  0  0  0  0  0
   23.2375   10.0963   11.4357 C   0  0  0  0  0  0  0  0  0  0  0  0
   22.5671   10.0345   13.5432 O   0  0  0  0  0  0  0  0  0  0  0  0
   23.7223   11.4506   11.5922 C   0  0  0  0  0  0  0  0  0  0  0  0
   25.1965   11.4597   11.8824 C   0  0  0  0  0  0  0  0  0  0  0  0
   25.9949   12.3867   11.9057 O   0  0  0  0  0  0  0  0  0  0  0  0
   25.6502   10.3150   12.3908 O   0  0  0  0  0  0  0  0  0  0  0  0
  1  2  2  0
  2  3  1  0
  2  4  1  0
  4  5  1  0
  5  6  1  0
  5  7  2  0
  6  8  1  0
  8  9  1  0
  9 10  2  0
  9 11  1  0
M  END
$$$$
40
     RDKit          3D

 16 16  0  0  0  0  0  0  0  0999 V2000
   25.7896    6.5384    6.4570 O   0  0  0  0  0  0  0  0  0  0  0  0
   26.2229    7.7215    7.0027 C   0  0  0  0  0  0  0  0  0  0  0  0
   25.2335    8.5904    7.4753 C   0  0  0  0  0  0  0  0  0  0  0  0
   25.5381    9.5456    8.4819 C   0  0  1  0  0  0  0  0  0  0  0  0
   25.4403   10.9753    8.1187 C   0  0  0  0  0  0  0  0  0  0  0  0
   25.7389    9.2150    9.7430 O   0  0  0  0  0  0  0  0  0  0  0  0
   25.1779   10.1639   10.6460 C   0  0  1  0  0  0  0  0  0  0  0  0
   25.2701   11.5517   10.4028 C   0  0  0  0  0  0  0  0  0  0  0  0
   25.4225   11.8915    9.0529 C   0  0  0  0  0  0  0  0  0  0  0  0
   23.7226    9.8055   10.9543 C   0  0  0  0  0  0  0  0  0  0  0  0
   25.2037   12.4554   11.4174 O   0  0  0  0  0  0  0  0  0  0  0  0
   22.8209   10.5190   10.7192 O   0  0  0  0  0  0  0  0  0  0  0  0
   23.5760    8.8061   11.9713 N   0  0  0  0  0  0  0  0  0  0  0  0
   22.3240    8.3957   12.5542 C   0  0  0  0  0  0  0  0  0  0  0  0
   22.1531    6.9980   12.5833 C   0  0  0  0  0  0  0  0  0  0  0  0
   23.0181    6.2042   13.0283 O   0  0  0  0  0  0  0  0  0  0  0  0
  1  2  1  0
  2  3  1  0
  4  3  1  1
  4  5  1  0
  4  6  1  0
  6  7  1  0
  7  8  1  0
  5  9  1  0
  8  9  1  0
  7 10  1  6
  8 11  1  0
 10 12  2  0
 10 13  1  0
 13 14  1  0
 14 15  1  0
 15 16  1  0
M  END
$$$$
41
     RDKit          3D

 16 17  0  0  0  0  0  0  0  0999 V2000
   24.1941   12.4771   13.7587 O   0  0  0  0  0  0  0  0  0  0  0  0
   24.8291   11.8892   12.7425 C   0  0  0  0  0  0  0  0  0  0  0  0
   26.0037   12.2811   12.3665 N   0  0  0  0  0  0  0  0  0  0  0  0
   24.2609   10.8135   11.9062 C   0  0  2  0  0  0  0  0  0  0  0  0
   24.6259   10.5017   10.8235 C   0  0  2  0  0  0  0  0  0  0  0  0
   23.9112    9.4801    9.9840 N   0  0  0  0  0  0  0  0  0  0  0  0
   25.8601   10.9901   10.2963 N   0  0  0  0  0  0  0  0  0  0  0  0
   26.4565   11.9248   11.0701 C   0  0  0  0  0  0  0  0  0  0  0  0
   23.0328   10.2707   12.7819 C   0  0  0  0  0  0  0  0  0  0  0  0
   22.8317    8.8852   10.6675 C   0  0  1  0  0  0  0  0  0  0  0  0
   22.4556    9.1982   11.9778 N   0  0  0  0  0  0  0  0  0  0  0  0
   22.0792    8.1977    9.6618 O   0  0  0  0  0  0  0  0  0  0  0  0
   26.7811   13.3654   13.1057 C   0  0  1  0  0  0  0  0  0  0  0  0
   27.8471   12.6144   13.9525 C   0  0  0  0  0  0  0  0  0  0  0  0
   27.5227   14.2516   12.2096 O   0  0  0  0  0  0  0  0  0  0  0  0
   27.5079   11.5994   14.6170 O   0  0  0  0  0  0  0  0  0  0  0  0
  1  2  2  0
  2  3  1  0
  2  4  1  0
  4  5  1  0
  5  6  1  1
  5  7  1  0
  3  8  1  0
  7  8  1  0
  4  9  1  6
  6 10  1  0
  9 11  1  0
 10 11  1  0
 10 12  1  6
  3 13  1  0
 13 14  1  0
 13 15  1  6
 14 16  1  0
M  END
$$$$
42
     RDKit          3D

 16 16  0  0  0  0  0  0  0  0999 V2000
   24.1941   12.4771   13.7587 O   0  0  0  0  0  0  0  0  0  0  0  0
   23.9099   11.5484   12.7758 C   0  0  2  0  0  0  0  0  0  0  0  0
   23.4176   10.3774   13.2010 C   0  0  0  0  0  0  0  0  0  0  0  0
   23.5421    9.3516   12.1446 C   0  0  2  0  0  0  0  0  0  0  0  0
   25.0050   11.2465   11.8035 C   0  0  1  0  0  0  0  0  0  0  0  0
   23.3252    8.1530   12.2189 N   0  0  0  0  0  0  0  0  0  0  0  0
   24.5130   10.0158   11.1836 O   0  0  0  0  0  0  0  0  0  0  0  0
   25.2234   12.3270   10.7906 C   0  0  0  0  0  0  0  0  0  0  0  0
   25.6592   11.7176    9.6457 O   0  0  0  0  0  0  0  0  0  0  0  0
   25.0188   11.9382    8.2427 C   0  0  0  0  0  0  0  0  0  0  0  0
   22.2677    7.6787   12.9831 C   0  0  0  0  0  0  0  0  0  0  0  0
   21.2533    8.0407   13.0006 O   0  0  0  0  0  0  0  0  0  0  0  0
   25.2572   10.9306    7.2919 C   0  0  0  0  0  0  0  0  0  0  0  0
   24.2546    9.9836    7.3765 O   0  0  0  0  0  0  0  0  0  0  0  0
   22.6899    6.5102   13.7968 C   0  0  0  0  0  0  0  0  0  0  0  0
   24.7514    8.5756    7.7035 C   0  0  0  0  0  0  0  0  0  0  0  0
  2  1  1  1
  2  3  1  0
  3  4  1  0
  2  5  1  0
  4  6  1  1
  4  7  1  0
  5  7  1  0
  5  8  1  6
  8  9  1  0
  9 10  1  0
  6 11  1  0
 11 12  2  0
 10 13  1  0
 13 14  1  0
 11 15  1  0
 14 16  1  0
M  END
$$$$
43
     RDKit          3D

 16 17  0  0  0  0  0  0  0  0999 V2000
   24.1941   12.4771   13.7587 O   0  0  0  0  0  0  0  0  0  0  0  0
   24.8291   11.8892   12.7425 C   0  0  0  0  0  0  0  0  0  0  0  0
   24.1492   10.8359   12.0522 N   0  0  0  0  0  0  0  0  0  0  0  0
   25.9086   12.5021   12.0869 C   0  0  0  0  0  0  0  0  0  0  0  0
   24.6390   10.2558   10.8928 C   0  0  1  0  0  0  0  0  0  0  0  0
   22.9788   10.0718   12.6615 C   0  0  0  0  0  0  0  0  0  0  0  0
   22.7692    8.8454   11.8335 C   0  0  0  0  0  0  0  0  0  0  0  0
   21.9634    7.8491   12.1666 C   0  0  0  0  0  0  0  0  0  0  0  0
   23.7185    9.1118   10.6533 N   0  0  0  0  0  0  0  0  0  0  0  0
   25.6604   10.7099   10.1322 C   0  0  2  0  0  0  0  0  0  0  0  0
   22.1186    7.3114   13.4006 C   0  0  0  0  0  0  0  0  0  0  0  0
   26.2761   11.9459   10.7445 C   0  0  0  0  0  0  0  0  0  0  0  0
   26.0053   10.2096    8.8828 C   0  0  0  0  0  0  0  0  0  0  0  0
   24.9715    9.3479    8.2861 O   0  0  0  0  0  0  0  0  0  0  0  0
   26.9941   10.5175    8.1863 O   0  0  0  0  0  0  0  0  0  0  0  0
   22.6307    5.9128   13.4994 C   0  0  0  0  0  0  0  0  0  0  0  0
  1  2  2  0
  2  3  1  0
  2  4  1  0
  3  5  1  0
  3  6  1  0
  6  7  1  0
  7  8  1  0
  5  9  1  6
  7  9  1  0
  5 10  1  0
  8 11  1  0
  4 12  1  0
 10 12  1  0
 10 13  1  6
 13 14  1  0
 13 15  2  0
 11 16  1  0
M  END
$$$$
44
     RDKit          3D

 16 17  0  0  0  0  0  0  0  0999 V2000
   21.7407    6.7687   13.3068 C   0  0  0  0  0  0  0  0  0  0  0  0
   22.2066    7.8692   12.5525 C   0  0  0  0  0  0  0  0  0  0  0  0
   22.3177    5.8062   13.1860 C   0  0  0  0  0  0  0  0  0  0  0  0
   23.3715    5.6221   12.2289 C   0  0  2  0  0  0  0  0  0  0  0  0
   24.0329    4.3787   12.3006 C   0  0  0  0  0  0  0  0  0  0  0  0
   23.7014    6.7170   11.5685 C   0  0  0  0  0  0  0  0  0  0  0  0
   23.1091    7.8949   11.6877 C   0  0  1  0  0  0  0  0  0  0  0  0
   24.7193    4.1085   11.3290 C   0  0  0  0  0  0  0  0  0  0  0  0
   24.8048    6.4136   10.6277 P   0  0  0  0  0  0  0  0  0  0  0  0
   25.2673    5.2051   10.7348 P   0  0  0  0  0  0  0  0  0  0  0  0
   23.2661    8.9132   10.7010 C   0  0  2  0  0  0  0  0  0  0  0  0
   24.1054    9.9424   10.9252 C   0  0  1  0  0  0  0  0  0  0  0  0
   22.0467    9.4628   10.0989 O   0  0  0  0  0  0  0  0  0  0  0  0
   23.6611   10.8046   12.0143 C   0  0  0  0  0  0  0  0  0  0  0  0
   25.4462    9.4961   11.2955 O   0  0  0  0  0  0  0  0  0  0  0  0
   24.0821   10.3470   13.2756 O   0  0  0  0  0  0  0  0  0  0  0  0
  1  2  1  0
  1  3  1  0
  4  3  1  1
  4  5  1  0
  4  6  1  0
  7  2  1  6
  6  7  1  0
  5  8  1  0
  6  9  1  0
  8 10  1  0
  9 10  1  0
  7 11  1  0
 11 12  1  0
 11 13  1  1
 12 14  1  0
 12 15  1  1
 14 16  1  0
M  END
$$$$
45
     RDKit          3D

 16 17  0  0  0  0  0  0  0  0999 V2000
   22.8756    4.9895   13.4947 O   0  0  0  0  0  0  0  0  0  0  0  0
   22.8046    6.3834   13.3020 C   0  0  0  0  0  0  0  0  0  0  0  0
   21.5161    6.9967   13.3156 C   0  0  0  0  0  0  0  0  0  0  0  0
   23.8009    7.0419   12.5027 C   0  0  0  0  0  0  0  0  0  0  0  0
   23.4858    8.4011   12.2995 C   0  0  2  0  0  0  0  0  0  0  0  0
   21.4839    8.4130   13.0796 C   0  0  0  0  0  0  0  0  0  0  0  0
   22.5178    8.9076   12.5002 C   0  0  1  0  0  0  0  0  0  0  0  0
   24.6317    9.1518   11.6267 C   0  0  0  0  0  0  0  0  0  0  0  0
   22.4713   10.3839   12.2386 C   0  0  0  0  0  0  0  0  0  0  0  0
   23.9568   10.5291   11.6230 C   0  0  0  0  0  0  0  0  0  0  0  0
   24.5854   11.7379   11.1081 C   0  0  0  0  0  0  0  0  0  0  0  0
   25.8459   12.0571   11.1923 C   0  0  2  0  0  0  0  0  0  0  0  0
   26.3952   12.3886   12.5358 C   0  0  0  0  0  0  0  0  0  0  0  0
   26.7321   11.4242   13.3436 O   0  0  0  0  0  0  0  0  0  0  0  0
   26.2903   13.2490   10.3683 O   0  0  0  0  0  0  0  0  0  0  0  0
   27.4406   13.3550   12.7025 O   0  0  0  0  0  0  0  0  0  0  0  0
  1  2  2  0
  2  3  1  0
  2  4  1  0
  5  4  1  6
  3  6  1  0
  5  7  1  0
  7  6  1  1
  5  8  1  0
  7  9  1  0
  8 10  1  0
  9 10  1  0
 10 11  2  3
 11 12  1  0
 12 13  1  0
 13 14  1  0
 12 15  1  6
 13 16  2  0
M  END
$$$$
46
     RDKit          3D

 17 17  0  0  0  0  0  0  0  0999 V2000
   23.1349    6.2818   13.4179 O   0  0  0  0  0  0  0  0  0  0  0  0
   22.6013    7.6079   13.0121 C   0  0  0  0  0  0  0  0  0  0  0  0
   22.9820    8.0857   11.7813 N   0  0  0  0  0  0  0  0  0  0  0  0
   22.6523    9.4094   11.3156 C   0  0  1  0  0  0  0  0  0  0  0  0
   23.2435   10.3850   12.3559 C   0  0  0  0  0  0  0  0  0  0  0  0
   23.1678    9.5834    9.9893 O   0  0  0  0  0  0  0  0  0  0  0  0
   22.0426    8.4249   13.8945 O   0  0  0  0  0  0  0  0  0  0  0  0
   24.6406   10.2638   12.3422 O   0  0  0  0  0  0  0  0  0  0  0  0
   25.1590   11.5787   12.9760 C   0  0  1  0  0  0  0  0  0  0  0  0
   25.8532   12.3513   12.2002 O   0  0  0  0  0  0  0  0  0  0  0  0
   22.7054    8.8417    8.9405 C   0  0  0  0  0  0  0  0  0  0  0  0
   26.7232   13.5577   12.6432 P   0  0  0  0  0  0  0  0  0  0  0  0
   28.0286   13.2929   12.3529 O   0  0  0  0  0  0  0  0  0  0  0  0
   26.2810   14.8423   12.0458 O   0  0  0  0  0  0  0  0  0  0  0  0
   26.3650   13.4466   14.1760 O   0  0  0  0  0  0  0  0  0  0  0  0
   23.9972   12.1743   13.5229 C   0  0  0  0  0  0  0  0  0  0  0  0
   22.9605   11.3176   13.1363 C   0  0  0  0  0  0  0  0  0  0  0  0
  1  2  2  0
  2  3  1  0
  4  3  1  1
  4  5  1  0
  4  6  1  0
  2  7  1  0
  5  8  1  0
  8  9  1  0
  9 10  1  6
  6 11  1  0
 10 12  1  0
 12 13  1  0
 12 14  2  0
 12 15  1  0
  9 16  1  0
  5 17  2  0
 16 17  1  0
M  END
$$$$
47
     RDKit          3D

 17 18  0  0  0  0  0  0  0  0999 V2000
   20.8573    6.9514   13.6202 O   0  0  0  0  0  0  0  0  0  0  0  0
   22.0867    6.8578   13.1553 C   0  0  0  0  0  0  0  0  0  0  0  0
   22.9307    6.0591   13.7500 C   0  0  0  0  0  0  0  0  0  0  0  0
   22.5844    7.9247   12.2539 N   0  0  0  0  0  0  0  0  0  0  0  0
   22.6628    9.3116   12.3345 C   0  0  2  0  0  0  0  0  0  0  0  0
   23.0331    9.9125   11.0711 C   0  0  1  0  0  0  0  0  0  0  0  0
   22.8234    9.9888   13.4151 O   0  0  0  0  0  0  0  0  0  0  0  0
   23.2859   11.2781   13.0002 C   0  0  0  0  0  0  0  0  0  0  0  0
   23.5942   11.2477   11.5969 C   0  0  1  0  0  0  0  0  0  0  0  0
   24.9071   11.3588   10.9839 O   0  0  0  0  0  0  0  0  0  0  0  0
   23.8437   12.0322   14.0028 O   0  0  0  0  0  0  0  0  0  0  0  0
   24.1137    9.4024   10.2700 O   0  0  0  0  0  0  0  0  0  0  0  0
   24.9773   10.3517    9.8795 C   0  0  1  0  0  0  0  0  0  0  0  0
   24.9032   11.1342    8.6326 C   0  0  0  0  0  0  0  0  0  0  0  0
   25.7865   11.9171    8.2995 O   0  0  0  0  0  0  0  0  0  0  0  0
   24.4133   10.3182    7.4902 C   0  0  0  0  0  0  0  0  0  0  0  0
   24.5611   10.7196    6.2035 O   0  0  0  0  0  0  0  0  0  0  0  0
  1  2  2  0
  2  3  1  0
  2  4  1  0
  5  4  1  1
  5  6  1  0
  5  7  1  0
  7  8  1  0
  6  9  1  0
  8  9  1  0
  9 10  1  1
  8 11  2  0
  6 12  1  1
 13 10  1  1
 12 13  1  0
 13 14  1  0
 14 15  1  0
 14 16  2  3
 16 17  1  0
M  END
$$$$
48
     RDKit          3D

 17 18  0  0  0  0  0  0  0  0999 V2000
   21.5424    8.4662    8.8819 O   0  0  0  0  0  0  0  0  0  0  0  0
   22.2195    9.0191   10.0087 C   0  0  1  0  0  0  0  0  0  0  0  0
   22.1154    8.4099   11.3200 C   0  0  2  0  0  0  0  0  0  0  0  0
   23.7282    9.1524    9.6199 C   0  0  2  0  0  0  0  0  0  0  0  0
   22.8729    9.0650   12.4425 C   0  0  0  0  0  0  0  0  0  0  0  0
   24.2126    9.4879   12.1479 O   0  0  0  0  0  0  0  0  0  0  0  0
   22.3605    9.0061   13.6496 O   0  0  0  0  0  0  0  0  0  0  0  0
   24.4499   10.0174   10.8179 C   0  0  2  0  0  0  0  0  0  0  0  0
   24.0473    9.8465    8.4559 O   0  0  0  0  0  0  0  0  0  0  0  0
   24.0900   11.3804   10.5941 C   0  0  1  0  0  0  0  0  0  0  0  0
   24.8034   12.1663   11.6348 O   0  0  0  0  0  0  0  0  0  0  0  0
   22.6218    7.0494   11.2811 O   0  0  0  0  0  0  0  0  0  0  0  0
   24.3879   11.9530    9.4033 C   0  0  2  0  0  0  0  0  0  0  0  0
   24.6644   10.8965    8.3206 C   0  0  1  0  0  0  0  0  0  0  0  0
   26.1714   10.5536    8.2748 C   0  0  0  0  0  0  0  0  0  0  0  0
   25.5087   12.8263    9.6582 O   0  0  0  0  0  0  0  0  0  0  0  0
   26.4221    9.5140    7.3211 O   0  0  0  0  0  0  0  0  0  0  0  0
  2  1  1  6
  2  3  1  0
  2  4  1  0
  3  5  1  0
  5  6  1  0
  5  7  2  0
  4  8  1  0
  8  6  1  1
  4  9  1  6
  8 10  1  0
 10 11  1  1
  3 12  1  6
 10 13  1  0
  9 14  1  0
 13 14  1  0
 14 15  1  1
 13 16  1  1
 15 17  1  0
M  END
$$$$
49
     RDKit          3D

 17 18  0  0  0  0  0  0  0  0999 V2000
   21.5424    8.4662    8.8819 O   0  0  0  0  0  0  0  0  0  0  0  0
   22.2195    9.0191   10.0087 C   0  0  1  0  0  0  0  0  0  0  0  0
   22.1154    8.4099   11.3200 C   0  0  2  0  0  0  0  0  0  0  0  0
   23.2795    9.8964    9.8511 C   0  0  1  0  0  0  0  0  0  0  0  0
   21.3061    7.3140   11.5972 C   0  0  0  0  0  0  0  0  0  0  0  0
   23.6385   10.3485    8.5602 O   0  0  0  0  0  0  0  0  0  0  0  0
   22.7698    9.1196   12.4189 C   0  0  2  0  0  0  0  0  0  0  0  0
   23.9680   10.4422   10.8789 C   0  0  0  0  0  0  0  0  0  0  0  0
   24.6738    9.7125    7.8321 C   0  0  0  0  0  0  0  0  0  0  0  0
   21.3323    6.9154   12.9331 C   0  0  1  0  0  0  0  0  0  0  0  0
   20.8741    5.6583   13.2687 C   0  0  0  0  0  0  0  0  0  0  0  0
   23.6612   10.0377   12.1054 C   0  0  1  0  0  0  0  0  0  0  0  0
   24.0965   10.9994   13.0534 O   0  0  0  0  0  0  0  0  0  0  0  0
   19.6707    5.4533   13.5097 C   0  0  0  0  0  0  0  0  0  0  0  0
   21.9211    5.2704   14.2416 C   0  0  0  0  0  0  0  0  0  0  0  0
   22.5528    7.3494   13.4611 O   0  0  0  0  0  0  0  0  0  0  0  0
   22.8257    8.6432   13.6125 C   0  0  0  0  0  0  0  0  0  0  0  0
  2  1  1  6
  2  3  1  0
  2  4  1  0
  3  5  1  1
  4  6  1  6
  3  7  1  0
  4  8  1  0
  6  9  1  0
  5 10  1  0
 10 11  1  6
  7 12  1  0
  8 12  1  0
 12 13  1  1
 11 14  1  0
 11 15  1  0
 10 16  1  0
  7 17  1  1
 16 17  1  0
M  END
$$$$
5
     RDKit          3D

 12 12  0  0  0  0  0  0  0  0999 V2000
   21.1000    6.7707   13.3736 O   0  0  0  0  0  0  0  0  0  0  0  0
   22.4691    6.8977   13.1944 C   0  0  0  0  0  0  0  0  0  0  0  0
   22.9524    8.2398   12.5728 C   0  0  1  0  0  0  0  0  0  0  0  0
   22.7416    8.4485   11.2535 N   0  0  0  0  0  0  0  0  0  0  0  0
   23.1096    9.7044   10.6995 C   0  0  0  0  0  0  0  0  0  0  0  0
   23.0711    9.4852   13.0610 C   0  0  0  0  0  0  0  0  0  0  0  0
   23.2796   10.4225   12.0026 N   0  0  0  0  0  0  0  0  0  0  0  0
   23.6521   11.8317   12.1969 C   0  0  2  0  0  0  0  0  0  0  0  0
   23.1491   10.3583    9.5896 O   0  0  0  0  0  0  0  0  0  0  0  0
   24.8875   11.7834   12.9171 C   0  0  0  0  0  0  0  0  0  0  0  0
   24.8930   12.6296   14.0278 O   0  0  0  0  0  0  0  0  0  0  0  0
   22.6783   12.2259   12.8395 O   0  0  0  0  0  0  0  0  0  0  0  0
  1  2  1  0
  3  2  1  1
  3  4  1  0
  4  5  1  0
  3  6  1  0
  5  7  1  0
  6  7  1  0
  7  8  1  0
  5  9  2  0
  8 10  1  0
 10 11  1  0
  8 12  1  1
M  END
$$$$
50
     RDKit          3D

 17 18  0  0  0  0  0  0  0  0999 V2000
   21.7407    6.7687   13.3068 C   0  0  0  0  0  0  0  0  0  0  0  0
   22.2066    7.8692   12.5525 C   0  0  2  0  0  0  0  0  0  0  0  0
   22.3177    5.8062   13.1860 C   0  0  1  0  0  0  0  0  0  0  0  0
   22.2108    4.7086   13.9596 C   0  0  2  0  0  0  0  0  0  0  0  0
   23.1004    4.3061   14.7674 C   0  0  0  0  0  0  0  0  0  0  0  0
   22.2553    8.0765   11.2353 C   0  0  0  0  0  0  0  0  0  0  0  0
   22.7603    9.2675   10.5870 N   0  0  0  0  0  0  0  0  0  0  0  0
   21.3441    7.7516   10.4222 O   0  0  0  0  0  0  0  0  0  0  0  0
   21.7474    3.7760   12.8596 C   0  0  0  0  0  0  0  0  0  0  0  0
   23.0202    8.9401   13.3014 C   0  0  0  0  0  0  0  0  0  0  0  0
   23.5203   10.0651   12.6395 N   0  0  0  0  0  0  0  0  0  0  0  0
   23.4186   10.2126   11.2696 C   0  0  0  0  0  0  0  0  0  0  0  0
   24.0229   11.2848   10.6858 N   0  0  0  0  0  0  0  0  0  0  0  0
   21.7512    4.1655   11.7637 C   0  0  0  0  0  0  0  0  0  0  0  0
   22.5120    5.4017   11.8651 N   0  0  0  0  0  0  0  0  0  0  0  0
   24.4052    4.2166   14.7236 C   0  0  0  0  0  0  0  0  0  0  0  0
   25.1468    3.9751   15.9003 C   0  0  0  0  0  0  0  0  0  0  0  0
  2  1  1  6
  3  1  1  6
  3  4  1  0
  4  5  1  6
  2  6  1  0
  6  7  1  0
  6  8  2  0
  4  9  1  0
  2 10  1  0
 10 11  1  0
  7 12  1  0
 11 12  1  0
 12 13  1  0
  9 14  1  0
  3 15  1  0
 14 15  1  0
  5 16  1  0
 16 17  1  0
M  END
$$$$
51
     RDKit          3D

 17 18  0  0  0  0  0  0  0  0999 V2000
   20.8573    6.9514   13.6202 O   0  0  0  0  0  0  0  0  0  0  0  0
   22.0867    6.8578   13.1553 C   0  0  0  0  0  0  0  0  0  0  0  0
   22.9307    6.0591   13.7500 C   0  0  0  0  0  0  0  0  0  0  0  0
   22.5844    7.9247   12.2539 N   0  0  0  0  0  0  0  0  0  0  0  0
   22.6628    9.3116   12.3345 C   0  0  2  0  0  0  0  0  0  0  0  0
   23.0331    9.9125   11.0711 C   0  0  1  0  0  0  0  0  0  0  0  0
   22.8234    9.9888   13.4151 O   0  0  0  0  0  0  0  0  0  0  0  0
   23.2859   11.2781   13.0002 C   0  0  0  0  0  0  0  0  0  0  0  0
   23.5942   11.2477   11.5969 C   0  0  1  0  0  0  0  0  0  0  0  0
   24.9071   11.3588   10.9839 O   0  0  0  0  0  0  0  0  0  0  0  0
   23.8437   12.0322   14.0028 O   0  0  0  0  0  0  0  0  0  0  0  0
   24.1137    9.4024   10.2700 O   0  0  0  0  0  0  0  0  0  0  0  0
   24.9773   10.3517    9.8795 C   0  0  2  0  0  0  0  0  0  0  0  0
   26.1729    9.6605    9.4968 C   0  0  2  0  0  0  0  0  0  0  0  0
   27.2769   10.3938    9.2882 O   0  0  0  0  0  0  0  0  0  0  0  0
   25.9352    8.9729    8.1420 C   0  0  0  0  0  0  0  0  0  0  0  0
   25.8155    9.7998    7.0665 O   0  0  0  0  0  0  0  0  0  0  0  0
  1  2  2  0
  2  3  1  0
  2  4  1  0
  5  4  1  1
  5  6  1  0
  5  7  1  0
  7  8  1  0
  6  9  1  0
  8  9  1  0
  9 10  1  1
  8 11  2  0
  6 12  1  1
 13 10  1  1
 12 13  1  0
 13 14  1  0
 14 15  1  6
 14 16  1  0
 16 17  1  0
M  END
$$$$
52
     RDKit          3D

 17 18  0  0  0  0  0  0  0  0999 V2000
   20.8573    6.9514   13.6202 O   0  0  0  0  0  0  0  0  0  0  0  0
   22.0867    6.8578   13.1553 C   0  0  0  0  0  0  0  0  0  0  0  0
   22.9307    6.0591   13.7500 C   0  0  0  0  0  0  0  0  0  0  0  0
   22.5844    7.9247   12.2539 N   0  0  0  0  0  0  0  0  0  0  0  0
   22.6628    9.3116   12.3345 C   0  0  2  0  0  0  0  0  0  0  0  0
   23.0331    9.9125   11.0711 C   0  0  1  0  0  0  0  0  0  0  0  0
   22.8234    9.9888   13.4151 O   0  0  0  0  0  0  0  0  0  0  0  0
   23.2859   11.2781   13.0002 C   0  0  0  0  0  0  0  0  0  0  0  0
   23.5942   11.2477   11.5969 C   0  0  1  0  0  0  0  0  0  0  0  0
   24.9071   11.3588   10.9839 O   0  0  0  0  0  0  0  0  0  0  0  0
   23.8437   12.0322   14.0028 O   0  0  0  0  0  0  0  0  0  0  0  0
   24.1137    9.4024   10.2700 O   0  0  0  0  0  0  0  0  0  0  0  0
   24.9773   10.3517    9.8795 C   0  0  2  0  0  0  0  0  0  0  0  0
   26.1729    9.6605    9.4968 C   0  0  0  0  0  0  0  0  0  0  0  0
   26.0950    9.0838    8.1794 C   0  0  0  0  0  0  0  0  0  0  0  0
   26.3390    9.8540    7.0895 N   0  0  0  0  0  0  0  0  0  0  0  0
   25.8074    7.7675    7.9978 N   0  0  0  0  0  0  0  0  0  0  0  0
  1  2  2  0
  2  3  1  0
  2  4  1  0
  5  4  1  1
  5  6  1  0
  5  7  1  0
  7  8  1  0
  6  9  1  0
  8  9  1  0
  9 10  1  1
  8 11  2  0
  6 12  1  1
 10 13  1  0
 12 13  1  0
 13 14  1  1
 14 15  1  0
 15 16  2  0
 15 17  1  0
M  END
$$$$
53
     RDKit          3D

 17 17  0  0  0  0  0  0  0  0999 V2000
   23.1033   11.3273   13.8783 O   0  0  0  0  0  0  0  0  0  0  0  0
   23.4504   10.7655   12.5961 C   0  0  2  0  0  0  0  0  0  0  0  0
   23.3020    9.3592   12.4684 C   0  0  1  0  0  0  0  0  0  0  0  0
   24.6134   11.3231   12.0977 C   0  0  2  0  0  0  0  0  0  0  0  0
   22.2605    8.8220   11.6915 C   0  0  1  0  0  0  0  0  0  0  0  0
   24.3793    8.7476   12.6366 O   0  0  0  0  0  0  0  0  0  0  0  0
   22.5438    9.0738   10.2538 C   0  0  0  0  0  0  0  0  0  0  0  0
   22.2418    7.3094   11.8883 O   0  0  0  0  0  0  0  0  0  0  0  0
   21.5198    6.8998   13.1405 C   0  0  0  0  0  0  0  0  0  0  0  0
   25.4228   11.9302   13.0630 O   0  0  0  0  0  0  0  0  0  0  0  0
   23.2499   10.1040   10.0348 O   0  0  0  0  0  0  0  0  0  0  0  0
   22.4368    6.1275   13.9765 C   0  0  0  0  0  0  0  0  0  0  0  0
   22.2713    8.2414    9.2740 O   0  0  0  0  0  0  0  0  0  0  0  0
   24.3708   11.9958   10.8339 C   0  0  2  0  0  0  0  0  0  0  0  0
   24.5437   10.8728    9.8733 C   0  0  0  0  0  0  0  0  0  0  0  0
   23.5735    5.3682   13.2596 C   0  0  0  0  0  0  0  0  0  0  0  0
   25.5000   12.9520   10.7369 O   0  0  0  0  0  0  0  0  0  0  0  0
  2  1  1  1
  2  3  1  0
  2  4  1  0
  3  5  1  0
  3  6  1  6
  5  7  1  0
  5  8  1  6
  8  9  1  0
  4 10  1  1
  7 11  1  0
  9 12  1  0
  7 13  2  0
  4 14  1  0
 11 15  1  0
 14 15  1  0
 12 16  1  0
 14 17  1  6
M  END
$$$$
54
     RDKit          3D

 17 17  0  0  0  0  0  0  0  0999 V2000
   23.1033   11.3273   13.8783 O   0  0  0  0  0  0  0  0  0  0  0  0
   23.4504   10.7655   12.5961 C   0  0  2  0  0  0  0  0  0  0  0  0
   23.3020    9.3592   12.4684 C   0  0  1  0  0  0  0  0  0  0  0  0
   24.6134   11.3231   12.0977 C   0  0  1  0  0  0  0  0  0  0  0  0
   22.2605    8.8220   11.6915 C   0  0  1  0  0  0  0  0  0  0  0  0
   24.3793    8.7476   12.6366 O   0  0  0  0  0  0  0  0  0  0  0  0
   22.5438    9.0738   10.2538 C   0  0  0  0  0  0  0  0  0  0  0  0
   22.2418    7.3094   11.8883 O   0  0  0  0  0  0  0  0  0  0  0  0
   21.5198    6.8998   13.1405 C   0  0  0  0  0  0  0  0  0  0  0  0
   25.4228   11.9302   13.0630 O   0  0  0  0  0  0  0  0  0  0  0  0
   23.2499   10.1040   10.0348 O   0  0  0  0  0  0  0  0  0  0  0  0
   22.1972    5.8858   13.8034 C   0  0  0  0  0  0  0  0  0  0  0  0
   22.0348    8.4091    9.2695 O   0  0  0  0  0  0  0  0  0  0  0  0
   23.6592    6.0302   14.0226 C   0  0  0  0  0  0  0  0  0  0  0  0
   24.3951   10.6529   10.6084 C   0  0  2  0  0  0  0  0  0  0  0  0
   25.5059    9.9684    9.9415 C   0  0  0  0  0  0  0  0  0  0  0  0
   26.7304   10.7406    9.7969 O   0  0  0  0  0  0  0  0  0  0  0  0
  2  1  1  1
  2  3  1  0
  2  4  1  0
  3  5  1  0
  3  6  1  6
  5  7  1  0
  5  8  1  6
  8  9  1  0
  4 10  1  1
  7 11  1  0
  9 12  1  0
  7 13  2  0
 12 14  1  0
  4 15  1  0
 11 15  1  0
 15 16  1  1
 16 17  1  0
M  END
$$$$
55
     RDKit          3D

 17 18  0  0  0  0  0  0  0  0999 V2000
   24.1941   12.4771   13.7587 O   0  0  0  0  0  0  0  0  0  0  0  0
   24.8291   11.8892   12.7425 C   0  0  0  0  0  0  0  0  0  0  0  0
   26.0037   12.2811   12.3665 N   0  0  0  0  0  0  0  0  0  0  0  0
   24.2609   10.8135   11.9062 C   0  0  2  0  0  0  0  0  0  0  0  0
   24.6259   10.5017   10.8235 C   0  0  2  0  0  0  0  0  0  0  0  0
   23.9112    9.4801    9.9840 N   0  0  0  0  0  0  0  0  0  0  0  0
   22.7617    9.0188   10.6723 C   0  0  1  0  0  0  0  0  0  0  0  0
   22.9563   10.2034   12.5005 C   0  0  0  0  0  0  0  0  0  0  0  0
   22.3891    9.2559   11.8829 C   0  0  0  0  0  0  0  0  0  0  0  0
   25.8211   10.9745   10.2678 N   0  0  0  0  0  0  0  0  0  0  0  0
   21.9460    8.1752    9.6085 C   0  0  0  0  0  0  0  0  0  0  0  0
   21.3251    8.6838    8.6207 O   0  0  0  0  0  0  0  0  0  0  0  0
   26.8103   13.1953   13.0657 C   0  0  2  0  0  0  0  0  0  0  0  0
   26.4926   11.9007   11.0456 C   0  0  0  0  0  0  0  0  0  0  0  0
   27.8330   12.4760   13.9669 C   0  0  0  0  0  0  0  0  0  0  0  0
   28.0320   12.9425   15.1631 O   0  0  0  0  0  0  0  0  0  0  0  0
   26.0944   14.0871   13.8948 O   0  0  0  0  0  0  0  0  0  0  0  0
  1  2  2  0
  2  3  1  0
  2  4  1  0
  4  5  1  0
  5  6  1  1
  6  7  1  0
  4  8  1  6
  7  9  1  0
  8  9  1  0
  5 10  1  0
  7 11  1  6
 11 12  2  0
  3 13  1  0
  3 14  1  0
 10 14  1  0
 13 15  1  0
 15 16  1  0
 13 17  1  1
M  END
$$$$
56
     RDKit          3D

 17 19  0  0  0  0  0  0  0  0999 V2000
   23.0547    5.7416   13.5817 O   0  0  0  0  0  0  0  0  0  0  0  0
   22.9015    7.0706   13.1531 C   0  0  1  0  0  0  0  0  0  0  0  0
   24.0527    7.8721   12.9092 C   0  0  0  0  0  0  0  0  0  0  0  0
   23.7143    9.2401   12.5782 C   0  0  2  0  0  0  0  0  0  0  0  0
   21.6452    7.4631   12.5704 C   0  0  0  0  0  0  0  0  0  0  0  0
   21.5686    8.7859   12.0518 C   0  0  2  0  0  0  0  0  0  0  0  0
   20.5395    9.0177   11.2466 C   0  0  1  0  0  0  0  0  0  0  0  0
   22.6405    9.6220   11.9224 C   0  0  1  0  0  0  0  0  0  0  0  0
   20.3076   10.2485   10.6617 C   0  0  0  0  0  0  0  0  0  0  0  0
   20.2347    7.8574   10.2730 C   0  0  0  0  0  0  0  0  0  0  0  0
   22.2887   11.0761   12.2661 C   0  0  2  0  0  0  0  0  0  0  0  0
   19.2845   10.6163    9.9179 C   0  0  0  0  0  0  0  0  0  0  0  0
   20.9916   11.3230   11.3648 C   0  0  0  0  0  0  0  0  0  0  0  0
   23.5519   11.7916   12.1482 C   0  0  0  0  0  0  0  0  0  0  0  0
   19.5086    7.0303   10.5009 O   0  0  0  0  0  0  0  0  0  0  0  0
   21.0187    7.5704    9.2580 O   0  0  0  0  0  0  0  0  0  0  0  0
   24.5552   10.6781   12.5190 C   0  0  0  0  0  0  0  0  0  0  0  0
  2  1  1  6
  2  3  1  0
  4  3  1  6
  2  5  1  0
  6  5  1  6
  6  7  1  0
  8  4  1  1
  6  8  1  0
  7  9  1  0
  7 10  1  6
  8 11  1  0
  9 12  1  0
  9 13  2  0
 11 13  1  0
 11 14  1  6
 10 15  1  0
 10 16  2  0
  4 17  1  0
 14 17  1  0
M  END
$$$$
57
     RDKit          3D

 17 18  0  0  0  0  0  0  0  0999 V2000
   20.8573    6.9514   13.6202 O   0  0  0  0  0  0  0  0  0  0  0  0
   22.0867    6.8578   13.1553 C   0  0  0  0  0  0  0  0  0  0  0  0
   22.6676    8.0006   12.4015 C   0  0  1  0  0  0  0  0  0  0  0  0
   22.9396    6.0861   13.8172 N   0  0  0  0  0  0  0  0  0  0  0  0
   23.7433    8.6875   12.5286 C   0  0  0  0  0  0  0  0  0  0  0  0
   22.0114    8.3147   11.1275 C   0  0  0  0  0  0  0  0  0  0  0  0
   22.4679    9.0884   10.4794 C   0  0  2  0  0  0  0  0  0  0  0  0
   21.9853    9.3789    9.0526 C   0  0  0  0  0  0  0  0  0  0  0  0
   23.8407    9.5900   11.3352 N   0  0  0  0  0  0  0  0  0  0  0  0
   21.1367    8.7726    8.7055 O   0  0  0  0  0  0  0  0  0  0  0  0
   24.8574   10.5688   11.0496 C   0  0  0  0  0  0  0  0  0  0  0  0
   22.7137   10.4003    8.5789 N   0  0  0  0  0  0  0  0  0  0  0  0
   23.8462   11.0805    9.1329 C   0  0  0  0  0  0  0  0  0  0  0  0
   22.9106   10.1199    7.1181 C   0  0  0  0  0  0  0  0  0  0  0  0
   24.5709   11.2059   10.0461 C   0  0  0  0  0  0  0  0  0  0  0  0
   23.1247   11.4581    6.4879 O   0  0  0  0  0  0  0  0  0  0  0  0
   25.6726   10.7561   12.1031 O   0  0  0  0  0  0  0  0  0  0  0  0
  1  2  2  0
  3  2  1  6
  2  4  1  0
  3  5  1  0
  3  6  1  0
  7  6  1  6
  7  8  1  0
  5  9  1  0
  7  9  1  0
  8 10  2  0
  9 11  1  0
  8 12  1  0
 12 13  1  0
 12 14  1  0
 11 15  1  0
 13 15  2  0
 14 16  1  0
 11 17  2  0
M  END
$$$$
58
     RDKit          3D

 17 18  0  0  0  0  0  0  0  0999 V2000
   22.5823    7.2262   13.5957 O   0  0  0  0  0  0  0  0  0  0  0  0
   22.8152    7.7170   12.5763 C   0  0  0  0  0  0  0  0  0  0  0  0
   22.0383    7.7553   11.5442 N   0  0  0  0  0  0  0  0  0  0  0  0
   23.9056    8.7457   12.5441 C   0  0  0  0  0  0  0  0  0  0  0  0
   23.8390    9.5054   11.4270 C   0  0  2  0  0  0  0  0  0  0  0  0
   22.3821    8.7284   10.5360 C   0  0  0  0  0  0  0  0  0  0  0  0
   23.1885    9.5657   10.4699 N   0  0  0  0  0  0  0  0  0  0  0  0
   25.0321   10.3359   11.3564 O   0  0  0  0  0  0  0  0  0  0  0  0
   21.3404    8.6052    9.5184 O   0  0  0  0  0  0  0  0  0  0  0  0
   25.0302   11.5364   12.2316 C   0  0  1  0  0  0  0  0  0  0  0  0
   23.9959   11.5916   13.0717 C   0  0  0  0  0  0  0  0  0  0  0  0
   26.3244   11.6884   12.7883 C   0  0  1  0  0  0  0  0  0  0  0  0
   22.8403   11.8819   12.9086 O   0  0  0  0  0  0  0  0  0  0  0  0
   27.2959   12.4781   12.0892 O   0  0  0  0  0  0  0  0  0  0  0  0
   24.5036   12.2103   14.3165 O   0  0  0  0  0  0  0  0  0  0  0  0
   26.0230   12.3418   14.2424 C   0  0  0  0  0  0  0  0  0  0  0  0
   26.9843   12.8017   14.9082 O   0  0  0  0  0  0  0  0  0  0  0  0
  1  2  2  0
  2  3  1  0
  2  4  1  0
  4  5  1  0
  3  6  1  0
  5  7  1  0
  6  7  1  0
  5  8  1  6
  6  9  2  0
 10  8  1  1
 10 11  1  0
 10 12  1  0
 11 13  2  0
 12 14  1  6
 11 15  1  0
 12 16  1  0
 15 16  1  0
 16 17  2  0
M  END
$$$$
59
     RDKit          3D

 17 18  0  0  0  0  0  0  0  0999 V2000
   21.5836    6.2491   13.3594 C   0  0  2  0  0  0  0  0  0  0  0  0
   22.0277    7.4926   12.7704 C   0  0  2  0  0  0  0  0  0  0  0  0
   20.5226    6.2252   13.7062 N   0  0  0  0  0  0  0  0  0  0  0  0
   23.1845    7.8774   11.9422 C   0  0  0  0  0  0  0  0  0  0  0  0
   22.6368    5.4766   13.7140 C   0  0  0  0  0  0  0  0  0  0  0  0
   21.6325    8.5895   13.7118 C   0  0  0  0  0  0  0  0  0  0  0  0
   23.3904    5.4494   14.7348 C   0  0  0  0  0  0  0  0  0  0  0  0
   23.6582    9.1583   11.7704 C   0  0  2  0  0  0  0  0  0  0  0  0
   23.0631   10.1361   12.5801 C   0  0  1  0  0  0  0  0  0  0  0  0
   22.4559    9.8476   13.5930 C   0  0  0  0  0  0  0  0  0  0  0  0
   24.1182   11.3041   12.4393 C   0  0  2  0  0  0  0  0  0  0  0  0
   24.4679   11.6548   11.1367 C   0  0  1  0  0  0  0  0  0  0  0  0
   19.8098    5.2300   12.9148 C   0  0  0  0  0  0  0  0  0  0  0  0
   25.7201   12.5727   11.0808 N   0  0  0  0  0  0  0  0  0  0  0  0
   25.1780   10.5850   10.3253 C   0  0  0  0  0  0  0  0  0  0  0  0
   24.4685    9.3936   10.5375 N   0  0  0  0  0  0  0  0  0  0  0  0
   25.3323   11.4239   13.3180 O   0  0  0  0  0  0  0  0  0  0  0  0
  1  2  1  0
  1  3  1  0
  2  4  1  1
  1  5  1  1
  2  6  1  0
  5  7  1  0
  8  4  1  6
  8  9  1  0
  6 10  1  0
  9 10  1  1
  9 11  1  0
 11 12  1  0
  3 13  1  0
 12 14  1  1
 12 15  1  0
  8 16  1  0
 15 16  1  0
 11 17  1  1
M  END
$$$$
6
     RDKit          3D

 12 12  0  0  0  0  0  0  0  0999 V2000
   21.5424    8.4662    8.8819 O   0  0  0  0  0  0  0  0  0  0  0  0
   22.2195    9.0191   10.0087 C   0  0  0  0  0  0  0  0  0  0  0  0
   22.1154    8.4099   11.3200 C   0  0  0  0  0  0  0  0  0  0  0  0
   22.8257    8.9663   12.4612 C   0  0  2  0  0  0  0  0  0  0  0  0
   23.0118   10.1509    9.9894 C   0  0  0  0  0  0  0  0  0  0  0  0
   22.7038    8.2174   13.7470 O   0  0  0  0  0  0  0  0  0  0  0  0
   23.5368   10.1495   12.4453 C   0  0  0  0  0  0  0  0  0  0  0  0
   23.0011    6.8734   13.4238 C   0  0  0  0  0  0  0  0  0  0  0  0
   23.6269   10.7346   11.0794 C   0  0  0  0  0  0  0  0  0  0  0  0
   24.4162   12.0114   10.9688 C   0  0  0  0  0  0  0  0  0  0  0  0
   25.0900   12.3003   12.2387 O   0  0  0  0  0  0  0  0  0  0  0  0
   24.6240   12.5912    9.9320 O   0  0  0  0  0  0  0  0  0  0  0  0
  1  2  1  0
  2  3  1  0
  3  4  1  0
  2  5  1  0
  4  6  1  1
  4  7  1  0
  6  8  1  0
  5  9  1  0
  7  9  1  0
  9 10  1  0
 10 11  1  0
 10 12  2  0
M  END
$$$$
60
     RDKit          3D

 17 18  0  0  0  0  0  0  0  0999 V2000
   24.1941   12.4771   13.7587 O   0  0  0  0  0  0  0  0  0  0  0  0
   24.8291   11.8892   12.7425 C   0  0  0  0  0  0  0  0  0  0  0  0
   24.1492   10.8359   12.0522 N   0  0  0  0  0  0  0  0  0  0  0  0
   25.9086   12.5021   12.0869 C   0  0  0  0  0  0  0  0  0  0  0  0
   24.6390   10.2558   10.8928 C   0  0  1  0  0  0  0  0  0  0  0  0
   22.9788   10.0718   12.6615 C   0  0  0  0  0  0  0  0  0  0  0  0
   22.7692    8.8454   11.8335 C   0  0  0  0  0  0  0  0  0  0  0  0
   21.9634    7.8491   12.1666 C   0  0  0  0  0  0  0  0  0  0  0  0
   23.7185    9.1118   10.6533 N   0  0  0  0  0  0  0  0  0  0  0  0
   25.6604   10.7099   10.1322 C   0  0  2  0  0  0  0  0  0  0  0  0
   22.1186    7.3114   13.4006 C   0  0  0  0  0  0  0  0  0  0  0  0
   26.2761   11.9459   10.7445 C   0  0  0  0  0  0  0  0  0  0  0  0
   26.0053   10.2096    8.8828 C   0  0  0  0  0  0  0  0  0  0  0  0
   24.9715    9.3479    8.2861 O   0  0  0  0  0  0  0  0  0  0  0  0
   21.7574    5.8920   13.5069 C   0  0  0  0  0  0  0  0  0  0  0  0
   27.0080   10.5017    8.1972 O   0  0  0  0  0  0  0  0  0  0  0  0
   22.8498    4.9895   13.4620 C   0  0  0  0  0  0  0  0  0  0  0  0
  1  2  2  0
  2  3  1  0
  2  4  1  0
  3  5  1  0
  3  6  1  0
  6  7  1  0
  7  8  1  0
  5  9  1  6
  7  9  1  0
  5 10  1  0
  8 11  1  0
  4 12  1  0
 10 12  1  0
 10 13  1  6
 13 14  1  0
 11 15  1  0
 13 16  2  0
 15 17  2  0
M  END
$$$$
61
     RDKit          3D

 17 17  0  0  0  0  0  0  0  0999 V2000
   23.1033   11.3273   13.8783 O   0  0  0  0  0  0  0  0  0  0  0  0
   23.4504   10.7655   12.5961 C   0  0  2  0  0  0  0  0  0  0  0  0
   23.3020    9.3592   12.4684 C   0  0  1  0  0  0  0  0  0  0  0  0
   24.6134   11.3231   12.0977 C   0  0  1  0  0  0  0  0  0  0  0  0
   22.2605    8.8220   11.6915 C   0  0  1  0  0  0  0  0  0  0  0  0
   24.3793    8.7476   12.6366 O   0  0  0  0  0  0  0  0  0  0  0  0
   22.5438    9.0738   10.2538 C   0  0  0  0  0  0  0  0  0  0  0  0
   22.2418    7.3094   11.8883 O   0  0  0  0  0  0  0  0  0  0  0  0
   21.5198    6.8998   13.1405 C   0  0  0  0  0  0  0  0  0  0  0  0
   25.4228   11.9302   13.0630 O   0  0  0  0  0  0  0  0  0  0  0  0
   23.2499   10.1040   10.0348 O   0  0  0  0  0  0  0  0  0  0  0  0
   22.1972    5.8858   13.8034 C   0  0  0  0  0  0  0  0  0  0  0  0
   22.0348    8.4091    9.2695 O   0  0  0  0  0  0  0  0  0  0  0  0
   23.6592    6.0302   14.0226 C   0  0  0  0  0  0  0  0  0  0  0  0
   24.3573   10.3297    9.3289 C   0  0  0  0  0  0  0  0  0  0  0  0
   25.6548   10.0746    9.9466 C   0  0  0  0  0  0  0  0  0  0  0  0
   25.8043   10.8099   11.2725 C   0  0  0  0  0  0  0  0  0  0  0  0
  2  1  1  1
  2  3  1  0
  2  4  1  0
  3  5  1  0
  3  6  1  6
  5  7  1  0
  5  8  1  6
  8  9  1  0
  4 10  1  1
  7 11  1  0
  9 12  1  0
  7 13  2  0
 12 14  1  0
 11 15  1  0
 15 16  1  0
  4 17  1  0
 16 17  2  3
M  END
$$$$
62
     RDKit          3D

 18 19  0  0  0  0  0  0  0  0999 V2000
   25.7896    6.5384    6.4570 O   0  0  0  0  0  0  0  0  0  0  0  0
   26.2229    7.7215    7.0027 C   0  0  0  0  0  0  0  0  0  0  0  0
   25.2335    8.5904    7.4753 C   0  0  0  0  0  0  0  0  0  0  0  0
   25.5381    9.5456    8.4819 C   0  0  1  0  0  0  0  0  0  0  0  0
   25.4403   10.9753    8.1187 C   0  0  0  0  0  0  0  0  0  0  0  0
   25.7389    9.2150    9.7430 O   0  0  0  0  0  0  0  0  0  0  0  0
   25.1779   10.1639   10.6460 C   0  0  2  0  0  0  0  0  0  0  0  0
   25.2701   11.5517   10.4028 C   0  0  2  0  0  0  0  0  0  0  0  0
   24.6007    9.6616   11.8240 N   0  0  0  0  0  0  0  0  0  0  0  0
   25.4097   11.8889    9.0884 C   0  0  0  0  0  0  0  0  0  0  0  0
   23.9741   10.5329   12.6494 C   0  0  0  0  0  0  0  0  0  0  0  0
   25.5103   12.3896   11.4507 O   0  0  0  0  0  0  0  0  0  0  0  0
   24.1497    8.4675   12.0733 C   0  0  0  0  0  0  0  0  0  0  0  0
   22.8970    9.8330   13.3576 N   0  0  0  0  0  0  0  0  0  0  0  0
   22.9695    8.5868   12.9341 C   0  0  1  0  0  0  0  0  0  0  0  0
   22.1267    7.4964   12.8778 C   0  0  0  0  0  0  0  0  0  0  0  0
   20.7911    7.6554   12.9062 O   0  0  0  0  0  0  0  0  0  0  0  0
   22.6372    6.3652   13.3407 N   0  0  0  0  0  0  0  0  0  0  0  0
  1  2  1  0
  2  3  1  0
  4  3  1  1
  4  5  1  0
  4  6  1  0
  6  7  1  0
  7  8  1  0
  7  9  1  1
  5 10  1  0
  8 10  1  0
  9 11  1  0
  8 12  1  1
  9 13  1  0
 11 14  1  0
 13 15  1  0
 14 15  1  0
 15 16  1  6
 16 17  2  0
 16 18  1  0
M  END
$$$$
63
     RDKit          3D

 18 18  0  0  0  0  0  0  0  0999 V2000
   23.8320   11.8126   13.6464 O   0  0  0  0  0  0  0  0  0  0  0  0
   24.5328   11.5610   12.5175 C   0  0  0  0  0  0  0  0  0  0  0  0
   25.6959   11.6435   12.4588 O   0  0  0  0  0  0  0  0  0  0  0  0
   23.7938   10.6902   11.4840 C   0  0  2  0  0  0  0  0  0  0  0  0
   23.1826    9.4657   11.9562 C   0  0  1  0  0  0  0  0  0  0  0  0
   23.9589   11.1184   10.2358 O   0  0  0  0  0  0  0  0  0  0  0  0
   25.1483   11.4763    9.6793 C   0  0  0  0  0  0  0  0  0  0  0  0
   25.3387   10.9562    8.2486 C   0  0  0  0  0  0  0  0  0  0  0  0
   25.3460    9.5276    8.3608 N   0  0  0  0  0  0  0  0  0  0  0  0
   25.0804   11.5971    7.2795 O   0  0  0  0  0  0  0  0  0  0  0  0
   22.8095    9.0837   13.1829 C   0  0  0  0  0  0  0  0  0  0  0  0
   22.0866    7.8162   13.2526 C   0  0  0  0  0  0  0  0  0  0  0  0
   22.8530    8.4997   10.8965 C   0  0  0  0  0  0  0  0  0  0  0  0
   25.0561    8.6928    7.2232 C   0  0  0  0  0  0  0  0  0  0  0  0
   22.2210    7.3983   11.0017 N   0  0  0  0  0  0  0  0  0  0  0  0
   22.0205    7.0014   12.1910 C   0  0  2  0  0  0  0  0  0  0  0  0
   26.0676    7.5999    7.1170 C   0  0  0  0  0  0  0  0  0  0  0  0
   21.4177    5.8606   12.4751 N   0  0  0  0  0  0  0  0  0  0  0  0
  1  2  1  0
  2  3  2  0
  2  4  1  0
  4  5  1  0
  4  6  1  6
  6  7  1  0
  7  8  1  0
  8  9  1  0
  8 10  2  0
  5 11  1  6
 11 12  1  0
  5 13  1  0
  9 14  1  0
 13 15  1  0
 12 16  1  0
 15 16  1  0
 14 17  1  0
 16 18  1  6
M  END
$$$$
64
     RDKit          3D

 18 19  0  0  0  0  0  0  0  0999 V2000
   21.5424    8.4662    8.8819 O   0  0  0  0  0  0  0  0  0  0  0  0
   22.2195    9.0191   10.0087 C   0  0  1  0  0  0  0  0  0  0  0  0
   22.1154    8.4099   11.3200 C   0  0  2  0  0  0  0  0  0  0  0  0
   23.7282    9.1524    9.6199 C   0  0  2  0  0  0  0  0  0  0  0  0
   22.8729    9.0650   12.4425 C   0  0  0  0  0  0  0  0  0  0  0  0
   24.2126    9.4879   12.1479 O   0  0  0  0  0  0  0  0  0  0  0  0
   22.3605    9.0061   13.6496 O   0  0  0  0  0  0  0  0  0  0  0  0
   24.4499   10.0174   10.8179 C   0  0  2  0  0  0  0  0  0  0  0  0
   24.0473    9.8465    8.4559 O   0  0  0  0  0  0  0  0  0  0  0  0
   24.0900   11.3804   10.5941 C   0  0  1  0  0  0  0  0  0  0  0  0
   24.8034   12.1663   11.6348 O   0  0  0  0  0  0  0  0  0  0  0  0
   22.6218    7.0494   11.2811 O   0  0  0  0  0  0  0  0  0  0  0  0
   24.3879   11.9530    9.4033 C   0  0  2  0  0  0  0  0  0  0  0  0
   24.5360   11.0860    8.3861 C   0  0  2  0  0  0  0  0  0  0  0  0
   24.5053   11.5196    6.9988 C   0  0  0  0  0  0  0  0  0  0  0  0
   25.3874   12.9447    9.7477 O   0  0  0  0  0  0  0  0  0  0  0  0
   25.5296   11.4685    6.1774 O   0  0  0  0  0  0  0  0  0  0  0  0
   23.3330   11.6045    6.3947 O   0  0  0  0  0  0  0  0  0  0  0  0
  2  1  1  6
  2  3  1  0
  2  4  1  0
  3  5  1  0
  5  6  1  0
  5  7  2  0
  4  8  1  0
  8  6  1  1
  4  9  1  6
  8 10  1  0
 10 11  1  1
  3 12  1  6
 10 13  1  0
  9 14  1  0
 13 14  1  0
 14 15  1  6
 13 16  1  1
 15 17  2  0
 15 18  1  0
M  END
$$$$
65
     RDKit          3D

 18 18  0  0  0  0  0  0  0  0999 V2000
   23.8320   11.8126   13.6464 O   0  0  0  0  0  0  0  0  0  0  0  0
   24.5328   11.5610   12.5175 C   0  0  0  0  0  0  0  0  0  0  0  0
   25.6959   11.6435   12.4588 O   0  0  0  0  0  0  0  0  0  0  0  0
   23.7938   10.6902   11.4840 C   0  0  2  0  0  0  0  0  0  0  0  0
   23.1826    9.4657   11.9562 C   0  0  2  0  0  0  0  0  0  0  0  0
   23.9589   11.1184   10.2358 O   0  0  0  0  0  0  0  0  0  0  0  0
   25.1483   11.4763    9.6793 C   0  0  0  0  0  0  0  0  0  0  0  0
   25.3387   10.9562    8.2486 C   0  0  0  0  0  0  0  0  0  0  0  0
   25.3460    9.5276    8.3608 N   0  0  0  0  0  0  0  0  0  0  0  0
   25.0804   11.5971    7.2795 O   0  0  0  0  0  0  0  0  0  0  0  0
   25.6261    8.7331    7.2363 C   0  0  0  0  0  0  0  0  0  0  0  0
   22.6637    8.5549   10.9131 C   0  0  0  0  0  0  0  0  0  0  0  0
   26.3822    7.5824    7.3669 C   0  0  0  0  0  0  0  0  0  0  0  0
   22.6587    8.9561    9.5590 O   0  0  0  0  0  0  0  0  0  0  0  0
   21.9259    7.5827   11.2428 N   0  0  0  0  0  0  0  0  0  0  0  0
   21.8368    7.5139   12.6733 C   0  0  0  0  0  0  0  0  0  0  0  0
   21.4931    6.5763   13.4017 O   0  0  0  0  0  0  0  0  0  0  0  0
   22.5618    9.0378   13.0754 C   0  0  0  0  0  0  0  0  0  0  0  0
  1  2  1  0
  2  3  2  0
  2  4  1  0
  4  5  1  0
  4  6  1  6
  6  7  1  0
  7  8  1  0
  8  9  1  0
  8 10  2  0
  9 11  1  0
  5 12  1  0
 11 13  1  0
 12 14  2  0
 12 15  1  0
 15 16  1  0
 16 17  2  0
  5 18  1  1
 16 18  1  0
M  END
$$$$
66
     RDKit          3D

 18 19  0  0  0  0  0  0  0  0999 V2000
   24.1941   12.4771   13.7587 O   0  0  0  0  0  0  0  0  0  0  0  0
   24.8291   11.8892   12.7425 C   0  0  0  0  0  0  0  0  0  0  0  0
   26.0037   12.2811   12.3665 N   0  0  0  0  0  0  0  0  0  0  0  0
   24.2609   10.8135   11.9062 C   0  0  2  0  0  0  0  0  0  0  0  0
   24.6259   10.5017   10.8235 C   0  0  2  0  0  0  0  0  0  0  0  0
   23.9112    9.4801    9.9840 N   0  0  0  0  0  0  0  0  0  0  0  0
   25.8601   10.9901   10.2963 N   0  0  0  0  0  0  0  0  0  0  0  0
   26.4565   11.9248   11.0701 C   0  0  0  0  0  0  0  0  0  0  0  0
   23.0328   10.2707   12.7819 C   0  0  0  0  0  0  0  0  0  0  0  0
   22.8317    8.8852   10.6675 C   0  0  1  0  0  0  0  0  0  0  0  0
   22.5253    9.1036   12.0040 C   0  0  1  0  0  0  0  0  0  0  0  0
   21.9732    8.2109    9.6812 O   0  0  0  0  0  0  0  0  0  0  0  0
   22.1842    7.9984   12.5673 C   0  0  0  0  0  0  0  0  0  0  0  0
   26.7789   13.3485   13.0980 C   0  0  0  0  0  0  0  0  0  0  0  0
   22.5465    6.9375   13.2497 C   0  0  0  0  0  0  0  0  0  0  0  0
   27.7805   12.6277   14.0501 C   0  0  0  0  0  0  0  0  0  0  0  0
   28.4781   13.3184   14.8458 O   0  0  0  0  0  0  0  0  0  0  0  0
   27.5106   11.4178   14.5772 O   0  0  0  0  0  0  0  0  0  0  0  0
  1  2  2  0
  2  3  1  0
  2  4  1  0
  4  5  1  0
  5  6  1  1
  5  7  1  0
  3  8  1  0
  7  8  1  0
  4  9  1  6
  6 10  1  0
  9 11  1  0
 10 11  1  0
 10 12  1  6
 11 13  1  1
  3 14  1  0
 13 15  2  0
 14 16  1  0
 16 17  1  0
 16 18  2  0
M  END
$$$$
67
     RDKit          3D

 18 19  0  0  0  0  0  0  0  0999 V2000
   21.5424    8.4662    8.8819 O   0  0  0  0  0  0  0  0  0  0  0  0
   22.2195    9.0191   10.0087 C   0  0  1  0  0  0  0  0  0  0  0  0
   22.1154    8.4099   11.3200 C   0  0  2  0  0  0  0  0  0  0  0  0
   23.2795    9.8964    9.8511 C   0  0  1  0  0  0  0  0  0  0  0  0
   21.3061    7.3140   11.5972 C   0  0  0  0  0  0  0  0  0  0  0  0
   23.6385   10.3485    8.5602 O   0  0  0  0  0  0  0  0  0  0  0  0
   22.7698    9.1196   12.4189 C   0  0  2  0  0  0  0  0  0  0  0  0
   23.9680   10.4422   10.8789 C   0  0  0  0  0  0  0  0  0  0  0  0
   24.6738    9.7125    7.8321 C   0  0  0  0  0  0  0  0  0  0  0  0
   21.3323    6.9154   12.9331 C   0  0  1  0  0  0  0  0  0  0  0  0
   20.8741    5.6583   13.2687 C   0  0  0  0  0  0  0  0  0  0  0  0
   23.6612   10.0377   12.1054 C   0  0  1  0  0  0  0  0  0  0  0  0
   24.0965   10.9994   13.0534 O   0  0  0  0  0  0  0  0  0  0  0  0
   19.6707    5.4533   13.5097 C   0  0  0  0  0  0  0  0  0  0  0  0
   21.9211    5.2704   14.2416 C   0  0  0  0  0  0  0  0  0  0  0  0
   22.5528    7.3494   13.4611 O   0  0  0  0  0  0  0  0  0  0  0  0
   25.0044   11.4453   10.6855 O   0  0  0  0  0  0  0  0  0  0  0  0
   22.9778    8.5065   13.5387 C   0  0  0  0  0  0  0  0  0  0  0  0
  2  1  1  6
  2  3  1  0
  2  4  1  0
  3  5  1  1
  4  6  1  6
  3  7  1  0
  4  8  1  0
  6  9  1  0
  5 10  1  0
 10 11  1  6
  7 12  1  0
  8 12  1  0
 12 13  1  1
 11 14  1  0
 11 15  1  0
 10 16  1  0
  8 17  1  0
  7 18  1  1
 16 18  1  0
M  END
$$$$
68
     RDKit          3D

 18 18  0  0  0  0  0  0  0  0999 V2000
   25.7896    6.5384    6.4570 O   0  0  0  0  0  0  0  0  0  0  0  0
   26.2229    7.7215    7.0027 C   0  0  0  0  0  0  0  0  0  0  0  0
   25.2335    8.5904    7.4753 C   0  0  0  0  0  0  0  0  0  0  0  0
   25.5381    9.5456    8.4819 C   0  0  1  0  0  0  0  0  0  0  0  0
   25.4403   10.9753    8.1187 C   0  0  1  0  0  0  0  0  0  0  0  0
   24.6134    9.3859    9.7077 N   0  0  0  0  0  0  0  0  0  0  0  0
   24.0002   10.4939   10.2228 C   0  0  2  0  0  0  0  0  0  0  0  0
   24.8318   11.5893    9.4420 C   0  0  0  0  0  0  0  0  0  0  0  0
   24.0726   10.6677   11.6549 N   0  0  0  0  0  0  0  0  0  0  0  0
   23.3316    9.8198   12.4317 C   0  0  0  0  0  0  0  0  0  0  0  0
   26.5782   11.6898    7.7089 O   0  0  0  0  0  0  0  0  0  0  0  0
   24.8761   11.6331   12.2442 C   0  0  0  0  0  0  0  0  0  0  0  0
   26.0203   11.8117   12.0977 O   0  0  0  0  0  0  0  0  0  0  0  0
   24.2655   12.2114   13.4816 O   0  0  0  0  0  0  0  0  0  0  0  0
   23.1161    8.3829   12.2094 C   0  0  0  0  0  0  0  0  0  0  0  0
   22.1934    7.6961   13.0794 C   0  0  0  0  0  0  0  0  0  0  0  0
   22.0492    6.3119   13.1565 C   0  0  0  0  0  0  0  0  0  0  0  0
   23.0853    5.5528   13.7369 O   0  0  0  0  0  0  0  0  0  0  0  0
  1  2  1  0
  2  3  1  0
  4  3  1  6
  4  5  1  0
  4  6  1  0
  6  7  1  0
  5  8  1  0
  7  8  1  0
  7  9  1  1
  9 10  1  0
  5 11  1  1
  9 12  1  0
 12 13  2  0
 12 14  1  0
 10 15  1  0
 15 16  1  0
 16 17  1  0
 17 18  1  0
M  END
$$$$
69
     RDKit          3D

 18 18  0  0  0  0  0  0  0  0999 V2000
   23.1033   11.3273   13.8783 O   0  0  0  0  0  0  0  0  0  0  0  0
   23.4504   10.7655   12.5961 C   0  0  2  0  0  0  0  0  0  0  0  0
   23.3020    9.3592   12.4684 C   0  0  1  0  0  0  0  0  0  0  0  0
   24.6134   11.3231   12.0977 C   0  0  1  0  0  0  0  0  0  0  0  0
   22.2605    8.8220   11.6915 C   0  0  1  0  0  0  0  0  0  0  0  0
   24.3793    8.7476   12.6366 O   0  0  0  0  0  0  0  0  0  0  0  0
   22.5438    9.0738   10.2538 C   0  0  0  0  0  0  0  0  0  0  0  0
   22.2418    7.3094   11.8883 O   0  0  0  0  0  0  0  0  0  0  0  0
   21.5198    6.8998   13.1405 C   0  0  0  0  0  0  0  0  0  0  0  0
   25.4228   11.9302   13.0630 O   0  0  0  0  0  0  0  0  0  0  0  0
   23.2499   10.1040   10.0348 O   0  0  0  0  0  0  0  0  0  0  0  0
   22.1972    5.8858   13.8034 C   0  0  0  0  0  0  0  0  0  0  0  0
   22.0348    8.4091    9.2695 O   0  0  0  0  0  0  0  0  0  0  0  0
   23.6592    6.0302   14.0226 C   0  0  0  0  0  0  0  0  0  0  0  0
   24.3573   10.3297    9.3289 C   0  0  0  0  0  0  0  0  0  0  0  0
   25.6548   10.0746    9.9466 C   0  0  0  0  0  0  0  0  0  0  0  0
   25.7289   10.9176   11.2062 C   0  0  1  0  0  0  0  0  0  0  0  0
   26.6377   12.0793   11.0280 O   0  0  0  0  0  0  0  0  0  0  0  0
  2  1  1  1
  2  3  1  0
  2  4  1  0
  3  5  1  0
  3  6  1  6
  5  7  1  0
  5  8  1  6
  8  9  1  0
  4 10  1  1
  7 11  1  0
  9 12  1  0
  7 13  2  0
 12 14  1  0
 11 15  1  0
 15 16  1  0
  4 17  1  0
 16 17  1  0
 17 18  1  6
M  END
$$$$
7
     RDKit          3D

 12 12  0  0  0  0  0  0  0  0999 V2000
   22.5823    7.2262   13.5957 O   0  0  0  0  0  0  0  0  0  0  0  0
   22.8152    7.7170   12.5763 C   0  0  0  0  0  0  0  0  0  0  0  0
   23.7745    8.8293   12.4996 C   0  0  0  0  0  0  0  0  0  0  0  0
   22.1042    7.3954   11.4467 N   0  0  0  0  0  0  0  0  0  0  0  0
   23.2427    9.9587   12.0593 C   0  0  2  0  0  0  0  0  0  0  0  0
   22.7007    9.8473   10.6678 O   0  0  0  0  0  0  0  0  0  0  0  0
   24.2136   11.1970   12.0412 C   0  0  2  0  0  0  0  0  0  0  0  0
   25.4435   10.6582   12.4093 O   0  0  0  0  0  0  0  0  0  0  0  0
   21.8299    8.7885   10.5568 C   0  0  0  0  0  0  0  0  0  0  0  0
   23.7616   12.0424   13.2302 C   0  0  0  0  0  0  0  0  0  0  0  0
   22.6278   11.6964   13.8592 O   0  0  0  0  0  0  0  0  0  0  0  0
   21.1712    8.5752    9.4937 O   0  0  0  0  0  0  0  0  0  0  0  0
  1  2  2  0
  2  3  1  0
  2  4  1  0
  5  3  1  6
  5  6  1  0
  5  7  1  0
  7  8  1  1
  4  9  1  0
  6  9  1  0
  7 10  1  0
 10 11  1  0
  9 12  2  0
M  END
$$$$
70
     RDKit          3D

 18 18  0  0  0  0  0  0  0  0999 V2000
   25.7896    6.5384    6.4570 O   0  0  0  0  0  0  0  0  0  0  0  0
   26.2229    7.7215    7.0027 C   0  0  0  0  0  0  0  0  0  0  0  0
   25.2335    8.5904    7.4753 C   0  0  0  0  0  0  0  0  0  0  0  0
   25.5381    9.5456    8.4819 C   0  0  1  0  0  0  0  0  0  0  0  0
   25.4403   10.9753    8.1187 C   0  0  0  0  0  0  0  0  0  0  0  0
   25.7389    9.2150    9.7430 O   0  0  0  0  0  0  0  0  0  0  0  0
   25.1779   10.1639   10.6460 C   0  0  1  0  0  0  0  0  0  0  0  0
   25.2701   11.5517   10.4028 C   0  0  2  0  0  0  0  0  0  0  0  0
   25.4225   11.8915    9.0529 C   0  0  0  0  0  0  0  0  0  0  0  0
   23.7226    9.8055   10.9543 C   0  0  0  0  0  0  0  0  0  0  0  0
   22.9316   10.7778   10.7573 O   0  0  0  0  0  0  0  0  0  0  0  0
   23.3231    8.5080   11.2931 N   0  0  0  0  0  0  0  0  0  0  0  0
   22.1981    8.2516   11.9307 C   0  0  0  0  0  0  0  0  0  0  0  0
   22.4364    7.7224   13.3217 C   0  0  0  0  0  0  0  0  0  0  0  0
   22.9803    6.3651   13.2215 O   0  0  0  0  0  0  0  0  0  0  0  0
   25.3978   12.5015   11.4895 C   0  0  0  0  0  0  0  0  0  0  0  0
   26.0787   13.6319   11.3562 O   0  0  0  0  0  0  0  0  0  0  0  0
   25.3126   12.0716   12.8373 O   0  0  0  0  0  0  0  0  0  0  0  0
  1  2  1  0
  2  3  1  0
  4  3  1  1
  4  5  1  0
  4  6  1  0
  6  7  1  0
  7  8  1  0
  5  9  1  0
  8  9  1  0
  7 10  1  6
 10 11  2  0
 10 12  1  0
 12 13  1  0
 13 14  1  0
 14 15  1  0
  8 16  1  1
 16 17  2  0
 16 18  1  0
M  END
$$$$
71
     RDKit          3D

 18 18  0  0  0  0  0  0  0  0999 V2000
   25.7896    6.5384    6.4570 O   0  0  0  0  0  0  0  0  0  0  0  0
   26.2229    7.7215    7.0027 C   0  0  0  0  0  0  0  0  0  0  0  0
   25.2335    8.5904    7.4753 C   0  0  0  0  0  0  0  0  0  0  0  0
   25.5381    9.5456    8.4819 C   0  0  1  0  0  0  0  0  0  0  0  0
   25.4403   10.9753    8.1187 C   0  0  1  0  0  0  0  0  0  0  0  0
   24.6134    9.3859    9.7077 N   0  0  0  0  0  0  0  0  0  0  0  0
   24.0002   10.4939   10.2228 C   0  0  2  0  0  0  0  0  0  0  0  0
   24.8318   11.5893    9.4420 C   0  0  0  0  0  0  0  0  0  0  0  0
   24.0726   10.6677   11.6549 N   0  0  0  0  0  0  0  0  0  0  0  0
   23.3316    9.8198   12.4317 C   0  0  0  0  0  0  0  0  0  0  0  0
   26.5782   11.6898    7.7089 O   0  0  0  0  0  0  0  0  0  0  0  0
   24.8761   11.6331   12.2442 C   0  0  0  0  0  0  0  0  0  0  0  0
   26.0203   11.8117   12.0977 O   0  0  0  0  0  0  0  0  0  0  0  0
   24.2655   12.2114   13.4816 O   0  0  0  0  0  0  0  0  0  0  0  0
   23.1161    8.3829   12.2094 C   0  0  0  0  0  0  0  0  0  0  0  0
   22.0940    7.7417   12.9792 C   0  0  0  0  0  0  0  0  0  0  0  0
   22.0159    6.3079   13.1137 C   0  0  0  0  0  0  0  0  0  0  0  0
   23.1645    5.6366   13.5368 C   0  0  0  0  0  0  0  0  0  0  0  0
  1  2  1  0
  2  3  1  0
  4  3  1  6
  4  5  1  0
  4  6  1  0
  6  7  1  0
  5  8  1  0
  7  8  1  0
  7  9  1  1
  9 10  1  0
  5 11  1  1
  9 12  1  0
 12 13  2  0
 12 14  1  0
 10 15  1  0
 15 16  1  0
 16 17  1  0
 17 18  1  0
M  END
$$$$
72
     RDKit          3D

 18 19  0  0  0  0  0  0  0  0999 V2000
   23.0547    5.7416   13.5817 O   0  0  0  0  0  0  0  0  0  0  0  0
   22.9015    7.0706   13.1531 C   0  0  1  0  0  0  0  0  0  0  0  0
   24.0527    7.8721   12.9092 C   0  0  0  0  0  0  0  0  0  0  0  0
   23.7143    9.2401   12.5782 C   0  0  0  0  0  0  0  0  0  0  0  0
   21.6452    7.4631   12.5704 C   0  0  0  0  0  0  0  0  0  0  0  0
   21.5686    8.7859   12.0518 C   0  0  2  0  0  0  0  0  0  0  0  0
   20.5395    9.0177   11.2466 C   0  0  1  0  0  0  0  0  0  0  0  0
   22.6405    9.6220   11.9224 C   0  0  1  0  0  0  0  0  0  0  0  0
   20.3076   10.2485   10.6617 C   0  0  0  0  0  0  0  0  0  0  0  0
   20.2347    7.8574   10.2730 C   0  0  0  0  0  0  0  0  0  0  0  0
   22.2887   11.0761   12.2661 C   0  0  2  0  0  0  0  0  0  0  0  0
   19.2845   10.6163    9.9179 C   0  0  0  0  0  0  0  0  0  0  0  0
   20.9916   11.3230   11.3648 C   0  0  0  0  0  0  0  0  0  0  0  0
   23.5519   11.7916   12.1482 C   0  0  0  0  0  0  0  0  0  0  0  0
   19.5086    7.0303   10.5009 O   0  0  0  0  0  0  0  0  0  0  0  0
   23.8616   12.4335   13.3281 O   0  0  0  0  0  0  0  0  0  0  0  0
   23.6644   12.6852   11.0368 O   0  0  0  0  0  0  0  0  0  0  0  0
   20.6325    7.8571    9.0954 O   0  0  0  0  0  0  0  0  0  0  0  0
  2  1  1  6
  2  3  1  0
  3  4  1  0
  2  5  1  0
  6  5  1  6
  6  7  1  0
  8  4  1  1
  6  8  1  0
  7  9  1  0
  7 10  1  6
  8 11  1  0
  9 12  1  0
  9 13  2  0
 11 13  1  0
 11 14  1  6
 10 15  1  0
 14 16  1  0
 14 17  2  0
 10 18  2  0
M  END
$$$$
73
     RDKit          3D

 18 18  0  0  0  0  0  0  0  0999 V2000
   23.8320   11.8126   13.6464 O   0  0  0  0  0  0  0  0  0  0  0  0
   24.5328   11.5610   12.5175 C   0  0  0  0  0  0  0  0  0  0  0  0
   25.6959   11.6435   12.4588 O   0  0  0  0  0  0  0  0  0  0  0  0
   23.7938   10.6902   11.4840 C   0  0  2  0  0  0  0  0  0  0  0  0
   23.1826    9.4657   11.9562 C   0  0  1  0  0  0  0  0  0  0  0  0
   23.9589   11.1184   10.2358 O   0  0  0  0  0  0  0  0  0  0  0  0
   25.1483   11.4763    9.6793 C   0  0  0  0  0  0  0  0  0  0  0  0
   25.3387   10.9562    8.2486 C   0  0  0  0  0  0  0  0  0  0  0  0
   25.3460    9.5276    8.3608 N   0  0  0  0  0  0  0  0  0  0  0  0
   25.0804   11.5971    7.2795 O   0  0  0  0  0  0  0  0  0  0  0  0
   25.6261    8.7331    7.2363 C   0  0  0  0  0  0  0  0  0  0  0  0
   22.6637    8.5549   10.9131 C   0  0  0  0  0  0  0  0  0  0  0  0
   26.3822    7.5824    7.3669 C   0  0  0  0  0  0  0  0  0  0  0  0
   22.6587    8.9561    9.5590 O   0  0  0  0  0  0  0  0  0  0  0  0
   23.3350    8.9156   13.1640 C   0  0  0  0  0  0  0  0  0  0  0  0
   21.8739    7.6243   11.2640 N   0  0  0  0  0  0  0  0  0  0  0  0
   21.7290    7.3984   12.6472 C   0  0  0  0  0  0  0  0  0  0  0  0
   22.5187    7.9235   13.5274 N   0  0  0  0  0  0  0  0  0  0  0  0
  1  2  1  0
  2  3  2  0
  2  4  1  0
  4  5  1  0
  4  6  1  6
  6  7  1  0
  7  8  1  0
  8  9  1  0
  8 10  2  0
  9 11  1  0
  5 12  1  0
 11 13  1  0
 12 14  2  0
  5 15  1  6
 12 16  1  0
 16 17  1  0
 15 18  1  0
 17 18  1  0
M  END
$$$$
74
     RDKit          3D

 18 19  0  0  0  0  0  0  0  0999 V2000
   25.7896    6.5384    6.4570 O   0  0  0  0  0  0  0  0  0  0  0  0
   26.2229    7.7215    7.0027 C   0  0  0  0  0  0  0  0  0  0  0  0
   25.2335    8.5904    7.4753 C   0  0  0  0  0  0  0  0  0  0  0  0
   25.5381    9.5456    8.4819 C   0  0  1  0  0  0  0  0  0  0  0  0
   25.4403   10.9753    8.1187 C   0  0  0  0  0  0  0  0  0  0  0  0
   25.7389    9.2150    9.7430 O   0  0  0  0  0  0  0  0  0  0  0  0
   25.1779   10.1639   10.6460 C   0  0  2  0  0  0  0  0  0  0  0  0
   25.2701   11.5517   10.4028 C   0  0  2  0  0  0  0  0  0  0  0  0
   24.6007    9.6616   11.8240 N   0  0  0  0  0  0  0  0  0  0  0  0
   25.4097   11.8889    9.0884 C   0  0  0  0  0  0  0  0  0  0  0  0
   23.9741   10.5329   12.6494 C   0  0  0  0  0  0  0  0  0  0  0  0
   25.5103   12.3896   11.4507 O   0  0  0  0  0  0  0  0  0  0  0  0
   24.1497    8.4675   12.0733 C   0  0  0  0  0  0  0  0  0  0  0  0
   22.8970    9.8330   13.3576 N   0  0  0  0  0  0  0  0  0  0  0  0
   22.9695    8.5868   12.9341 C   0  0  1  0  0  0  0  0  0  0  0  0
   22.1267    7.4964   12.8778 C   0  0  0  0  0  0  0  0  0  0  0  0
   22.5112    6.3050   13.3055 C   0  0  0  0  0  0  0  0  0  0  0  0
   22.7380    5.2346   13.5441 C   0  0  0  0  0  0  0  0  0  0  0  0
  1  2  1  0
  2  3  1  0
  4  3  1  1
  4  5  1  0
  4  6  1  0
  6  7  1  0
  7  8  1  0
  7  9  1  1
  5 10  1  0
  8 10  1  0
  9 11  1  0
  8 12  1  1
  9 13  1  0
 11 14  1  0
 13 15  1  0
 14 15  1  0
 15 16  1  6
 16 17  1  0
 17 18  3  0
M  END
$$$$
75
     RDKit          3D

 18 18  0  0  0  0  0  0  0  0999 V2000
   25.7896    6.5384    6.4570 O   0  0  0  0  0  0  0  0  0  0  0  0
   26.2229    7.7215    7.0027 C   0  0  0  0  0  0  0  0  0  0  0  0
   25.2335    8.5904    7.4753 C   0  0  0  0  0  0  0  0  0  0  0  0
   25.5381    9.5456    8.4819 C   0  0  1  0  0  0  0  0  0  0  0  0
   25.4403   10.9753    8.1187 C   0  0  1  0  0  0  0  0  0  0  0  0
   24.6134    9.3859    9.7077 N   0  0  0  0  0  0  0  0  0  0  0  0
   24.0002   10.4939   10.2228 C   0  0  2  0  0  0  0  0  0  0  0  0
   24.8318   11.5893    9.4420 C   0  0  0  0  0  0  0  0  0  0  0  0
   24.0726   10.6677   11.6549 N   0  0  0  0  0  0  0  0  0  0  0  0
   23.3316    9.8198   12.4317 C   0  0  0  0  0  0  0  0  0  0  0  0
   26.5782   11.6898    7.7089 O   0  0  0  0  0  0  0  0  0  0  0  0
   25.3562   11.0064   12.1229 C   0  0  0  0  0  0  0  0  0  0  0  0
   25.1265   12.0313   13.1903 C   0  0  0  0  0  0  0  0  0  0  0  0
   26.2108   12.5252   13.8585 O   0  0  0  0  0  0  0  0  0  0  0  0
   22.2568    8.9500   11.9264 C   0  0  0  0  0  0  0  0  0  0  0  0
   23.9727   12.2597   13.6650 O   0  0  0  0  0  0  0  0  0  0  0  0
   22.6519    7.5540   12.2619 C   0  0  0  0  0  0  0  0  0  0  0  0
   22.1573    7.1035   13.3434 O   0  0  0  0  0  0  0  0  0  0  0  0
  1  2  1  0
  2  3  1  0
  4  3  1  6
  4  5  1  0
  4  6  1  0
  6  7  1  0
  5  8  1  0
  7  8  1  0
  7  9  1  1
  9 10  1  0
  5 11  1  1
  9 12  1  0
 12 13  1  0
 13 14  1  0
 10 15  1  0
 13 16  2  0
 15 17  1  0
 17 18  1  0
M  END
$$$$
76
     RDKit          3D

 18 18  0  0  0  0  0  0  0  0999 V2000
   22.7509    5.5965   13.5219 C   0  0  0  0  0  0  0  0  0  0  0  0
   22.3111    6.9013   13.3179 C   0  0  0  0  0  0  0  0  0  0  0  0
   22.2338    4.6565   13.5749 C   0  0  0  0  0  0  0  0  0  0  0  0
   23.1616    8.0646   12.9856 C   0  0  0  0  0  0  0  0  0  0  0  0
   21.2869    4.3386   12.6829 C   0  0  0  0  0  0  0  0  0  0  0  0
   20.6711    3.1103   12.7916 C   0  0  0  0  0  0  0  0  0  0  0  0
   22.9884    8.8779   12.1074 C   0  0  0  0  0  0  0  0  0  0  0  0
   22.1344    8.7510   10.9323 C   0  0  0  0  0  0  0  0  0  0  0  0
   21.8315    7.6179   10.4197 O   0  0  0  0  0  0  0  0  0  0  0  0
   23.7040   10.2171   12.2438 C   0  0  2  0  0  0  0  0  0  0  0  0
   21.7289    9.8251   10.2664 O   0  0  0  0  0  0  0  0  0  0  0  0
   20.9239    2.1216   13.6585 C   0  0  0  0  0  0  0  0  0  0  0  0
   23.1441   11.2667   12.9061 C   0  0  1  0  0  0  0  0  0  0  0  0
   24.9099   10.4701   11.6214 C   0  0  0  0  0  0  0  0  0  0  0  0
   22.0195   11.2933   13.6690 O   0  0  0  0  0  0  0  0  0  0  0  0
   25.4308   11.6181   11.5489 C   0  0  0  0  0  0  0  0  0  0  0  0
   25.0124   12.7111   12.3906 C   0  0  0  0  0  0  0  0  0  0  0  0
   23.8883   12.4593   12.8574 C   0  0  0  0  0  0  0  0  0  0  0  0
  1  2  1  0
  1  3  1  0
  2  4  1  0
  3  5  1  0
  5  6  1  0
  4  7  2  3
  7  8  1  0
  8  9  1  0
  7 10  1  0
  8 11  2  0
  6 12  1  0
 10 13  1  0
 10 14  1  6
 13 15  1  1
 14 16  1  0
 16 17  1  0
 13 18  1  0
 17 18  1  0
M  END
$$$$
77
     RDKit          3D

 18 18  0  0  0  0  0  0  0  0999 V2000
   25.7896    6.5384    6.4570 O   0  0  0  0  0  0  0  0  0  0  0  0
   26.2229    7.7215    7.0027 C   0  0  0  0  0  0  0  0  0  0  0  0
   25.2335    8.5904    7.4753 C   0  0  0  0  0  0  0  0  0  0  0  0
   25.5381    9.5456    8.4819 C   0  0  1  0  0  0  0  0  0  0  0  0
   25.4403   10.9753    8.1187 C   0  0  1  0  0  0  0  0  0  0  0  0
   24.6134    9.3859    9.7077 N   0  0  0  0  0  0  0  0  0  0  0  0
   24.0002   10.4939   10.2228 C   0  0  2  0  0  0  0  0  0  0  0  0
   24.8318   11.5893    9.4420 C   0  0  0  0  0  0  0  0  0  0  0  0
   24.0726   10.6677   11.6549 N   0  0  0  0  0  0  0  0  0  0  0  0
   23.3316    9.8198   12.4317 C   0  0  0  0  0  0  0  0  0  0  0  0
   26.5782   11.6898    7.7089 O   0  0  0  0  0  0  0  0  0  0  0  0
   24.8761   11.6331   12.2442 C   0  0  0  0  0  0  0  0  0  0  0  0
   26.0203   11.8117   12.0977 O   0  0  0  0  0  0  0  0  0  0  0  0
   24.2655   12.2114   13.4816 O   0  0  0  0  0  0  0  0  0  0  0  0
   23.1161    8.3829   12.2094 C   0  0  0  0  0  0  0  0  0  0  0  0
   22.1934    7.6961   13.0794 C   0  0  0  0  0  0  0  0  0  0  0  0
   22.4448    6.3059   13.4295 C   0  0  0  0  0  0  0  0  0  0  0  0
   23.0995    5.4594   13.4814 N   0  0  0  0  0  0  0  0  0  0  0  0
  1  2  1  0
  2  3  1  0
  4  3  1  6
  4  5  1  0
  4  6  1  0
  6  7  1  0
  5  8  1  0
  7  8  1  0
  7  9  1  1
  9 10  1  0
  5 11  1  1
  9 12  1  0
 12 13  2  0
 12 14  1  0
 10 15  1  0
 15 16  1  0
 16 17  1  0
 17 18  3  0
M  END
$$$$
78
     RDKit          3D

 18 19  0  0  0  0  0  0  0  0999 V2000
   25.7896    6.5384    6.4570 O   0  0  0  0  0  0  0  0  0  0  0  0
   26.2229    7.7215    7.0027 C   0  0  0  0  0  0  0  0  0  0  0  0
   25.2335    8.5904    7.4753 C   0  0  1  0  0  0  0  0  0  0  0  0
   25.5381    9.5456    8.4819 C   0  0  1  0  0  0  0  0  0  0  0  0
   25.4403   10.9753    8.1187 C   0  0  2  0  0  0  0  0  0  0  0  0
   24.6134    9.3859    9.7077 N   0  0  0  0  0  0  0  0  0  0  0  0
   24.0002   10.4939   10.2228 C   0  0  2  0  0  0  0  0  0  0  0  0
   24.8318   11.5893    9.4420 C   0  0  0  0  0  0  0  0  0  0  0  0
   24.0726   10.6677   11.6549 N   0  0  0  0  0  0  0  0  0  0  0  0
   23.3316    9.8198   12.4317 C   0  0  0  0  0  0  0  0  0  0  0  0
   22.7496    8.6683   12.0426 C   0  0  0  0  0  0  0  0  0  0  0  0
   24.8770   11.6866   12.1657 C   0  0  0  0  0  0  0  0  0  0  0  0
   22.1400    7.7313   12.9927 C   0  0  0  0  0  0  0  0  0  0  0  0
   24.4590   10.8808    7.0171 C   0  0  0  0  0  0  0  0  0  0  0  0
   24.8713    9.7355    6.4809 N   0  0  0  0  0  0  0  0  0  0  0  0
   22.3531    6.4779   13.0955 C   0  0  0  0  0  0  0  0  0  0  0  0
   22.4746    5.8193   14.1776 O   0  0  0  0  0  0  0  0  0  0  0  0
   23.1255   10.3007   13.6535 O   0  0  0  0  0  0  0  0  0  0  0  0
  1  2  1  0
  3  2  1  6
  3  4  1  0
  4  5  1  0
  4  6  1  1
  6  7  1  0
  5  8  1  1
  7  8  1  0
  7  9  1  1
  9 10  1  0
 10 11  1  0
  9 12  1  0
 11 13  1  0
  5 14  1  0
  3 15  1  0
 14 15  1  0
 13 16  1  0
 16 17  2  0
 10 18  2  0
M  END
$$$$
79
     RDKit          3D

 18 20  0  0  0  0  0  0  0  0999 V2000
   23.0547    5.7416   13.5817 O   0  0  0  0  0  0  0  0  0  0  0  0
   22.9015    7.0706   13.1531 C   0  0  1  0  0  0  0  0  0  0  0  0
   24.0527    7.8721   12.9092 C   0  0  0  0  0  0  0  0  0  0  0  0
   23.7143    9.2401   12.5782 C   0  0  0  0  0  0  0  0  0  0  0  0
   21.6452    7.4631   12.5704 C   0  0  0  0  0  0  0  0  0  0  0  0
   21.5686    8.7859   12.0518 C   0  0  2  0  0  0  0  0  0  0  0  0
   20.5395    9.0177   11.2466 C   0  0  1  0  0  0  0  0  0  0  0  0
   22.6405    9.6220   11.9224 C   0  0  1  0  0  0  0  0  0  0  0  0
   20.3076   10.2485   10.6617 C   0  0  1  0  0  0  0  0  0  0  0  0
   20.2347    7.8574   10.2730 C   0  0  0  0  0  0  0  0  0  0  0  0
   22.2887   11.0761   12.2661 C   0  0  0  0  0  0  0  0  0  0  0  0
   19.2845   10.6163    9.9179 C   0  0  0  0  0  0  0  0  0  0  0  0
   20.5997   11.3812   11.7124 C   0  0  0  0  0  0  0  0  0  0  0  0
   20.0063   12.2647   12.0985 C   0  0  0  0  0  0  0  0  0  0  0  0
   18.3629   11.5114   10.6384 C   0  0  0  0  0  0  0  0  0  0  0  0
   20.2947   13.1893   12.9767 C   0  0  0  0  0  0  0  0  0  0  0  0
   18.6269   12.2646   11.5403 C   0  0  0  0  0  0  0  0  0  0  0  0
   20.9985    7.8637    9.1805 C   0  0  0  0  0  0  0  0  0  0  0  0
  2  1  1  6
  2  3  1  0
  3  4  1  0
  2  5  1  0
  6  5  1  6
  6  7  1  0
  8  4  1  1
  6  8  1  0
  7  9  1  0
  7 10  1  6
  8 11  1  0
  9 12  1  1
  9 13  1  0
 11 13  1  0
 13 14  2  0
 12 15  1  0
 14 16  1  0
 14 17  1  0
 15 17  1  0
 10 18  2  0
M  END
$$$$
8
     RDKit          3D

 12 12  0  0  0  0  0  0  0  0999 V2000
   20.8573    6.9514   13.6202 O   0  0  0  0  0  0  0  0  0  0  0  0
   22.0867    6.8578   13.1553 C   0  0  0  0  0  0  0  0  0  0  0  0
   22.9307    6.0591   13.7500 C   0  0  0  0  0  0  0  0  0  0  0  0
   22.5844    7.9247   12.2539 N   0  0  0  0  0  0  0  0  0  0  0  0
   22.6628    9.3116   12.3345 C   0  0  2  0  0  0  0  0  0  0  0  0
   23.0331    9.9125   11.0711 C   0  0  2  0  0  0  0  0  0  0  0  0
   22.8234    9.9888   13.4151 O   0  0  0  0  0  0  0  0  0  0  0  0
   23.6150   11.1653   13.2260 C   0  0  2  0  0  0  0  0  0  0  0  0
   23.4444    9.1405    9.9166 O   0  0  0  0  0  0  0  0  0  0  0  0
   24.1381   10.9062   11.4799 C   0  0  1  0  0  0  0  0  0  0  0  0
   24.5896   11.5318   14.0119 O   0  0  0  0  0  0  0  0  0  0  0  0
   25.3777   10.2228   11.7338 O   0  0  0  0  0  0  0  0  0  0  0  0
  1  2  2  0
  2  3  1  0
  2  4  1  0
  5  4  1  1
  5  6  1  0
  5  7  1  0
  7  8  1  0
  6  9  1  6
  6 10  1  0
  8 10  1  0
  8 11  1  1
 10 12  1  1
M  END
$$$$
80
     RDKit          3D

 18 20  0  0  0  0  0  0  0  0999 V2000
   24.1941   12.4771   13.7587 O   0  0  0  0  0  0  0  0  0  0  0  0
   24.8291   11.8892   12.7425 C   0  0  0  0  0  0  0  0  0  0  0  0
   24.1492   10.8359   12.0522 C   0  0  2  0  0  0  0  0  0  0  0  0
   25.9422   12.5059   12.2271 N   0  0  0  0  0  0  0  0  0  0  0  0
   26.6236   13.5817   12.7383 C   0  0  0  0  0  0  0  0  0  0  0  0
   24.4990   10.8714   10.6260 C   0  0  1  0  0  0  0  0  0  0  0  0
   25.5778   11.5213   10.0577 N   0  0  0  0  0  0  0  0  0  0  0  0
   23.8415    9.9018    9.8199 N   0  0  0  0  0  0  0  0  0  0  0  0
   26.1856   12.3781   10.8207 C   0  0  0  0  0  0  0  0  0  0  0  0
   23.1784    9.9955   12.5738 C   0  0  0  0  0  0  0  0  0  0  0  0
   22.8285    9.1043   10.4355 C   0  0  0  0  0  0  0  0  0  0  0  0
   27.2728   13.0778   10.6913 N   0  0  0  0  0  0  0  0  0  0  0  0
   27.6250   13.7997   11.7642 C   0  0  0  0  0  0  0  0  0  0  0  0
   26.7682   13.9482   14.0253 O   0  0  0  0  0  0  0  0  0  0  0  0
   22.7848    9.0176   11.8006 C   0  0  2  0  0  0  0  0  0  0  0  0
   22.1317    8.2274    9.6211 O   0  0  0  0  0  0  0  0  0  0  0  0
   21.6682    8.1420   12.2858 C   0  0  0  0  0  0  0  0  0  0  0  0
   22.2348    7.3996   13.4513 O   0  0  0  0  0  0  0  0  0  0  0  0
  1  2  2  0
  2  3  1  0
  2  4  1  0
  4  5  1  0
  3  6  1  0
  6  7  1  1
  6  8  1  0
  4  9  1  0
  7  9  1  0
  3 10  1  6
  8 11  1  0
  9 12  2  0
  5 13  1  0
 12 13  1  0
  5 14  2  0
 10 15  1  0
 11 15  1  0
 11 16  2  0
 15 17  1  6
 17 18  1  0
M  END
$$$$
81
     RDKit          3D

 18 19  0  0  0  0  0  0  0  0999 V2000
   24.1941   12.4771   13.7587 O   0  0  0  0  0  0  0  0  0  0  0  0
   24.8291   11.8892   12.7425 C   0  0  0  0  0  0  0  0  0  0  0  0
   26.0037   12.2811   12.3665 N   0  0  0  0  0  0  0  0  0  0  0  0
   24.2609   10.8135   11.9062 C   0  0  2  0  0  0  0  0  0  0  0  0
   24.6259   10.5017   10.8235 C   0  0  2  0  0  0  0  0  0  0  0  0
   23.9112    9.4801    9.9840 N   0  0  0  0  0  0  0  0  0  0  0  0
   22.7617    9.0188   10.6723 C   0  0  2  0  0  0  0  0  0  0  0  0
   22.9563   10.2034   12.5005 C   0  0  0  0  0  0  0  0  0  0  0  0
   22.3891    9.2559   11.8829 C   0  0  2  0  0  0  0  0  0  0  0  0
   25.8211   10.9745   10.2678 N   0  0  0  0  0  0  0  0  0  0  0  0
   21.9236    8.0616   10.0977 O   0  0  0  0  0  0  0  0  0  0  0  0
   26.2631   10.6360    8.9730 C   0  0  2  0  0  0  0  0  0  0  0  0
   26.6097    9.4610    8.7442 O   0  0  0  0  0  0  0  0  0  0  0  0
   21.5955    8.2889   12.5575 C   0  0  0  0  0  0  0  0  0  0  0  0
   27.3129   11.5605    8.3608 C   0  0  0  0  0  0  0  0  0  0  0  0
   26.1186    8.4991    7.8671 C   0  0  0  0  0  0  0  0  0  0  0  0
   26.3620   12.1247   10.8392 C   0  0  0  0  0  0  0  0  0  0  0  0
   22.3627    7.4315   13.5603 O   0  0  0  0  0  0  0  0  0  0  0  0
  1  2  2  0
  2  3  1  0
  2  4  1  0
  4  5  1  0
  5  6  1  1
  6  7  1  0
  4  8  1  6
  7  9  1  0
  8  9  1  0
  5 10  1  0
  7 11  1  1
 10 12  1  0
 12 13  1  0
  9 14  1  1
 12 15  1  1
 13 16  1  0
  3 17  1  0
 10 17  1  0
 14 18  1  0
M  END
$$$$
82
     RDKit          3D

 18 18  0  0  0  0  0  0  0  0999 V2000
   21.7407    6.7687   13.3068 C   0  0  0  0  0  0  0  0  0  0  0  0
   22.2066    7.8692   12.5525 C   0  0  2  0  0  0  0  0  0  0  0  0
   22.3177    5.8062   13.1860 C   0  0  0  0  0  0  0  0  0  0  0  0
   22.2108    4.7086   13.9596 C   0  0  2  0  0  0  0  0  0  0  0  0
   23.1004    4.3061   14.7674 C   0  0  0  0  0  0  0  0  0  0  0  0
   22.2553    8.0765   11.2353 C   0  0  0  0  0  0  0  0  0  0  0  0
   22.7603    9.2675   10.5870 N   0  0  0  0  0  0  0  0  0  0  0  0
   21.3441    7.7516   10.4222 O   0  0  0  0  0  0  0  0  0  0  0  0
   21.7474    3.7760   12.8596 C   0  0  0  0  0  0  0  0  0  0  0  0
   23.0202    8.9401   13.3014 C   0  0  0  0  0  0  0  0  0  0  0  0
   23.5203   10.0651   12.6395 N   0  0  0  0  0  0  0  0  0  0  0  0
   23.4186   10.2126   11.2696 C   0  0  0  0  0  0  0  0  0  0  0  0
   24.0229   11.2848   10.6858 N   0  0  0  0  0  0  0  0  0  0  0  0
   21.3980    2.5067   13.1090 C   0  0  0  0  0  0  0  0  0  0  0  0
   24.2135    3.7420   14.3338 C   0  0  0  0  0  0  0  0  0  0  0  0
   25.1476    3.1019   15.1990 C   0  0  0  0  0  0  0  0  0  0  0  0
   26.3488    2.8836   15.0018 C   0  0  0  0  0  0  0  0  0  0  0  0
   24.4834    2.6755   16.3433 C   0  0  0  0  0  0  0  0  0  0  0  0
  2  1  1  6
  1  3  1  0
  4  3  1  6
  4  5  1  0
  2  6  1  0
  6  7  1  0
  6  8  2  0
  4  9  1  0
  2 10  1  0
 10 11  1  0
  7 12  1  0
 11 12  1  0
 12 13  1  0
  9 14  1  0
  5 15  1  0
 15 16  1  0
 16 17  1  0
 16 18  1  0
M  END
$$$$
83
     RDKit          3D

 18 20  0  0  0  0  0  0  0  0999 V2000
   24.1941   12.4771   13.7587 O   0  0  0  0  0  0  0  0  0  0  0  0
   24.8291   11.8892   12.7425 C   0  0  0  0  0  0  0  0  0  0  0  0
   24.1492   10.8359   12.0522 C   0  0  2  0  0  0  0  0  0  0  0  0
   25.9422   12.5059   12.2271 N   0  0  0  0  0  0  0  0  0  0  0  0
   26.6236   13.5817   12.7383 C   0  0  0  0  0  0  0  0  0  0  0  0
   24.4990   10.8714   10.6260 C   0  0  1  0  0  0  0  0  0  0  0  0
   25.5778   11.5213   10.0577 N   0  0  0  0  0  0  0  0  0  0  0  0
   23.8415    9.9018    9.8199 N   0  0  0  0  0  0  0  0  0  0  0  0
   26.1856   12.3781   10.8207 C   0  0  0  0  0  0  0  0  0  0  0  0
   23.1784    9.9955   12.5738 C   0  0  0  0  0  0  0  0  0  0  0  0
   22.8285    9.1043   10.4355 C   0  0  0  0  0  0  0  0  0  0  0  0
   27.2728   13.0778   10.6913 N   0  0  0  0  0  0  0  0  0  0  0  0
   27.6250   13.7997   11.7642 C   0  0  0  0  0  0  0  0  0  0  0  0
   26.7682   13.9482   14.0253 O   0  0  0  0  0  0  0  0  0  0  0  0
   22.7848    9.0176   11.8006 C   0  0  2  0  0  0  0  0  0  0  0  0
   22.2657    8.1305    9.6152 O   0  0  0  0  0  0  0  0  0  0  0  0
   21.8646    7.9088   12.3218 C   0  0  0  0  0  0  0  0  0  0  0  0
   22.3211    7.4222   13.5561 O   0  0  0  0  0  0  0  0  0  0  0  0
  1  2  2  0
  2  3  1  0
  2  4  1  0
  4  5  1  0
  3  6  1  0
  6  7  1  1
  6  8  1  0
  4  9  1  0
  7  9  1  0
  3 10  1  6
  8 11  1  0
  9 12  2  0
  5 13  1  0
 12 13  1  0
  5 14  2  0
 10 15  1  0
 11 15  1  0
 11 16  2  0
 15 17  1  6
 17 18  2  0
M  END
$$$$
84
     RDKit          3D

 19 19  0  0  0  0  0  0  0  0999 V2000
   23.8320   11.8126   13.6464 O   0  0  0  0  0  0  0  0  0  0  0  0
   24.5328   11.5610   12.5175 C   0  0  0  0  0  0  0  0  0  0  0  0
   25.6959   11.6435   12.4588 O   0  0  0  0  0  0  0  0  0  0  0  0
   23.7938   10.6902   11.4840 C   0  0  2  0  0  0  0  0  0  0  0  0
   23.1826    9.4657   11.9562 C   0  0  1  0  0  0  0  0  0  0  0  0
   23.9589   11.1184   10.2358 O   0  0  0  0  0  0  0  0  0  0  0  0
   25.1483   11.4763    9.6793 C   0  0  0  0  0  0  0  0  0  0  0  0
   25.3387   10.9562    8.2486 C   0  0  0  0  0  0  0  0  0  0  0  0
   25.3460    9.5276    8.3608 N   0  0  0  0  0  0  0  0  0  0  0  0
   25.0804   11.5971    7.2795 O   0  0  0  0  0  0  0  0  0  0  0  0
   25.6261    8.7331    7.2363 C   0  0  0  0  0  0  0  0  0  0  0  0
   22.6637    8.5549   10.9131 C   0  0  0  0  0  0  0  0  0  0  0  0
   26.3822    7.5824    7.3669 C   0  0  0  0  0  0  0  0  0  0  0  0
   22.6587    8.9561    9.5590 O   0  0  0  0  0  0  0  0  0  0  0  0
   21.9259    7.5827   11.2428 N   0  0  0  0  0  0  0  0  0  0  0  0
   23.3260    8.9069   13.2086 C   0  0  0  0  0  0  0  0  0  0  0  0
   21.7528    7.1706   12.5465 C   0  0  2  0  0  0  0  0  0  0  0  0
   22.5243    7.8386   13.5116 N   0  0  0  0  0  0  0  0  0  0  0  0
   21.0715    6.1993   12.8800 N   0  0  0  0  0  0  0  0  0  0  0  0
  1  2  1  0
  2  3  2  0
  2  4  1  0
  4  5  1  0
  4  6  1  6
  6  7  1  0
  7  8  1  0
  8  9  1  0
  8 10  2  0
  9 11  1  0
  5 12  1  0
 11 13  1  0
 12 14  2  0
 12 15  1  0
  5 16  1  6
 15 17  1  0
 16 18  1  0
 17 18  1  0
 17 19  1  6
M  END
$$$$
85
     RDKit          3D

 19 20  0  0  0  0  0  0  0  0999 V2000
   21.5836    6.2491   13.3594 C   0  0  1  0  0  0  0  0  0  0  0  0
   22.7201    5.8103   13.5961 C   0  0  0  0  0  0  0  0  0  0  0  0
   20.6172    6.0071   13.8610 C   0  0  0  0  0  0  0  0  0  0  0  0
   22.7773    4.3679   13.8483 C   0  0  0  0  0  0  0  0  0  0  0  0
   21.6992    3.7371   13.7106 C   0  0  1  0  0  0  0  0  0  0  0  0
   21.5524    2.3879   13.9803 C   0  0  0  0  0  0  0  0  0  0  0  0
   20.5533    4.4559   13.4317 C   0  0  0  0  0  0  0  0  0  0  0  0
   21.5463    7.6424   12.7513 C   0  0  0  0  0  0  0  0  0  0  0  0
   22.8996    8.3308   12.4467 C   0  0  0  0  0  0  0  0  0  0  0  0
   22.2692    1.6173   13.3663 C   0  0  0  0  0  0  0  0  0  0  0  0
   22.8520    9.6332   12.3481 C   0  0  1  0  0  0  0  0  0  0  0  0
   23.4533   10.4788   13.3274 O   0  0  0  0  0  0  0  0  0  0  0  0
   23.8019   10.0328   11.0054 C   0  0  1  0  0  0  0  0  0  0  0  0
   23.1458   10.5326    9.8685 O   0  0  0  0  0  0  0  0  0  0  0  0
   24.7772   11.1000   11.3425 C   0  0  0  0  0  0  0  0  0  0  0  0
   24.2993   11.6247   12.8672 C   0  0  2  0  0  0  0  0  0  0  0  0
   23.1417    9.4111    8.8972 C   0  0  0  0  0  0  0  0  0  0  0  0
   25.3877   11.9390   13.7211 O   0  0  0  0  0  0  0  0  0  0  0  0
   25.8856   11.4876   10.8193 C   0  0  0  0  0  0  0  0  0  0  0  0
  1  2  1  0
  1  3  1  0
  2  4  1  0
  4  5  1  0
  5  6  1  1
  3  7  1  0
  5  7  1  0
  1  8  1  1
  8  9  1  0
  6 10  2  0
 11  9  1  1
 11 12  1  0
 11 13  1  0
 13 14  1  6
 13 15  1  0
 12 16  1  0
 15 16  1  0
 14 17  1  0
 16 18  1  1
 15 19  2  0
M  END
$$$$
86
     RDKit          3D

 19 19  0  0  0  0  0  0  0  0999 V2000
   25.7896    6.5384    6.4570 O   0  0  0  0  0  0  0  0  0  0  0  0
   26.2229    7.7215    7.0027 C   0  0  0  0  0  0  0  0  0  0  0  0
   25.2335    8.5904    7.4753 C   0  0  0  0  0  0  0  0  0  0  0  0
   25.5381    9.5456    8.4819 C   0  0  1  0  0  0  0  0  0  0  0  0
   25.4403   10.9753    8.1187 C   0  0  0  0  0  0  0  0  0  0  0  0
   25.7389    9.2150    9.7430 O   0  0  0  0  0  0  0  0  0  0  0  0
   25.1779   10.1639   10.6460 C   0  0  1  0  0  0  0  0  0  0  0  0
   25.2701   11.5517   10.4028 C   0  0  2  0  0  0  0  0  0  0  0  0
   25.4225   11.8915    9.0529 C   0  0  0  0  0  0  0  0  0  0  0  0
   23.7226    9.8055   10.9543 C   0  0  0  0  0  0  0  0  0  0  0  0
   22.9316   10.7778   10.7573 O   0  0  0  0  0  0  0  0  0  0  0  0
   23.3231    8.5080   11.2931 N   0  0  0  0  0  0  0  0  0  0  0  0
   22.1981    8.2516   11.9307 C   0  0  0  0  0  0  0  0  0  0  0  0
   25.4957   12.4588   11.4801 C   0  0  0  0  0  0  0  0  0  0  0  0
   25.0464   12.1255   12.7618 C   0  0  0  0  0  0  0  0  0  0  0  0
   24.3712   13.1066   13.4994 O   0  0  0  0  0  0  0  0  0  0  0  0
   22.3832    8.0480   13.4057 C   0  0  0  0  0  0  0  0  0  0  0  0
   22.9963    6.7184   13.5255 O   0  0  0  0  0  0  0  0  0  0  0  0
   24.8043   10.9606   13.2714 O   0  0  0  0  0  0  0  0  0  0  0  0
  1  2  1  0
  2  3  1  0
  4  3  1  1
  4  5  1  0
  4  6  1  0
  6  7  1  0
  7  8  1  0
  5  9  1  0
  8  9  1  0
  7 10  1  6
 10 11  2  0
 10 12  1  0
 12 13  1  0
  8 14  1  1
 14 15  1  0
 15 16  2  0
 13 17  1  0
 17 18  1  0
 15 19  1  0
M  END
$$$$
87
     RDKit          3D

 19 20  0  0  0  0  0  0  0  0999 V2000
   22.5823    7.2262   13.5957 O   0  0  0  0  0  0  0  0  0  0  0  0
   22.8152    7.7170   12.5763 C   0  0  0  0  0  0  0  0  0  0  0  0
   22.0383    7.7553   11.5442 N   0  0  0  0  0  0  0  0  0  0  0  0
   23.3916    9.2689   12.7826 C   0  0  0  0  0  0  0  0  0  0  0  0
   23.5591    9.7629   11.7895 C   0  0  1  0  0  0  0  0  0  0  0  0
   22.1618    8.6446   10.4773 C   0  0  0  0  0  0  0  0  0  0  0  0
   22.9465    9.7549   10.6077 N   0  0  0  0  0  0  0  0  0  0  0  0
   24.5293   10.9681   11.9508 N   0  0  0  0  0  0  0  0  0  0  0  0
   25.7093   11.0013   11.3443 C   0  0  1  0  0  0  0  0  0  0  0  0
   25.8344   10.4952   10.1757 O   0  0  0  0  0  0  0  0  0  0  0  0
   24.0731   11.9754   12.9091 C   0  0  0  0  0  0  0  0  0  0  0  0
   23.1042   11.8368   13.6562 O   0  0  0  0  0  0  0  0  0  0  0  0
   26.6740   12.1150   11.5406 C   0  0  1  0  0  0  0  0  0  0  0  0
   25.1035   12.9030   13.5097 C   0  0  0  0  0  0  0  0  0  0  0  0
   26.5852   12.8080   12.9082 C   0  0  1  0  0  0  0  0  0  0  0  0
   27.3762   11.9609   13.8966 O   0  0  0  0  0  0  0  0  0  0  0  0
   21.4819    8.6737    9.3420 O   0  0  0  0  0  0  0  0  0  0  0  0
   27.9694   11.7186   11.1438 O   0  0  0  0  0  0  0  0  0  0  0  0
   24.9517   13.8121   14.2391 O   0  0  0  0  0  0  0  0  0  0  0  0
  1  2  2  0
  2  3  1  0
  2  4  1  0
  4  5  1  0
  3  6  1  0
  5  7  1  0
  6  7  1  0
  5  8  1  1
  8  9  1  0
  9 10  1  6
  8 11  1  0
 11 12  2  0
  9 13  1  0
 11 14  1  0
 13 15  1  0
 14 15  1  0
 15 16  1  1
  6 17  2  0
 13 18  1  1
 14 19  2  0
M  END
$$$$
88
     RDKit          3D

 19 19  0  0  0  0  0  0  0  0999 V2000
   25.7896    6.5384    6.4570 O   0  0  0  0  0  0  0  0  0  0  0  0
   26.2229    7.7215    7.0027 C   0  0  0  0  0  0  0  0  0  0  0  0
   25.2335    8.5904    7.4753 C   0  0  0  0  0  0  0  0  0  0  0  0
   25.5381    9.5456    8.4819 C   0  0  1  0  0  0  0  0  0  0  0  0
   25.4403   10.9753    8.1187 C   0  0  1  0  0  0  0  0  0  0  0  0
   24.6134    9.3859    9.7077 N   0  0  0  0  0  0  0  0  0  0  0  0
   24.0002   10.4939   10.2228 C   0  0  2  0  0  0  0  0  0  0  0  0
   24.8318   11.5893    9.4420 C   0  0  0  0  0  0  0  0  0  0  0  0
   24.0726   10.6677   11.6549 N   0  0  0  0  0  0  0  0  0  0  0  0
   23.3316    9.8198   12.4317 C   0  0  0  0  0  0  0  0  0  0  0  0
   26.5782   11.6898    7.7089 O   0  0  0  0  0  0  0  0  0  0  0  0
   25.3562   11.0064   12.1229 C   0  0  0  0  0  0  0  0  0  0  0  0
   25.1265   12.0313   13.1903 C   0  0  0  0  0  0  0  0  0  0  0  0
   26.2108   12.5252   13.8585 O   0  0  0  0  0  0  0  0  0  0  0  0
   22.2568    8.9500   11.9264 C   0  0  0  0  0  0  0  0  0  0  0  0
   23.9727   12.2597   13.6650 O   0  0  0  0  0  0  0  0  0  0  0  0
   22.0917    7.7960   12.7766 C   0  0  0  0  0  0  0  0  0  0  0  0
   23.2287    7.2163   13.3610 C   0  0  0  0  0  0  0  0  0  0  0  0
   22.9373    5.9866   14.1599 C   0  0  0  0  0  0  0  0  0  0  0  0
  1  2  1  0
  2  3  1  0
  4  3  1  6
  4  5  1  0
  4  6  1  0
  6  7  1  0
  5  8  1  0
  7  8  1  0
  7  9  1  1
  9 10  1  0
  5 11  1  1
  9 12  1  0
 12 13  1  0
 13 14  1  0
 10 15  1  0
 13 16  2  0
 15 17  1  0
 17 18  1  0
 18 19  1  0
M  END
$$$$
89
     RDKit          3D

 19 20  0  0  0  0  0  0  0  0999 V2000
   21.5424    8.4662    8.8819 O   0  0  0  0  0  0  0  0  0  0  0  0
   22.2195    9.0191   10.0087 C   0  0  1  0  0  0  0  0  0  0  0  0
   22.1154    8.4099   11.3200 C   0  0  2  0  0  0  0  0  0  0  0  0
   23.2795    9.8964    9.8511 C   0  0  1  0  0  0  0  0  0  0  0  0
   21.3061    7.3140   11.5972 C   0  0  0  0  0  0  0  0  0  0  0  0
   23.6385   10.3485    8.5602 O   0  0  0  0  0  0  0  0  0  0  0  0
   22.7698    9.1196   12.4189 C   0  0  2  0  0  0  0  0  0  0  0  0
   23.9680   10.4422   10.8789 C   0  0  2  0  0  0  0  0  0  0  0  0
   24.6738    9.7125    7.8321 C   0  0  0  0  0  0  0  0  0  0  0  0
   21.3323    6.9154   12.9331 C   0  0  1  0  0  0  0  0  0  0  0  0
   20.8741    5.6583   13.2687 C   0  0  0  0  0  0  0  0  0  0  0  0
   23.6612   10.0377   12.1054 C   0  0  0  0  0  0  0  0  0  0  0  0
   19.6706    5.4596   13.5158 C   0  0  0  0  0  0  0  0  0  0  0  0
   24.9337   11.5192   10.5782 C   0  0  0  0  0  0  0  0  0  0  0  0
   21.8903    5.2634   14.2575 C   0  0  0  0  0  0  0  0  0  0  0  0
   21.9617    7.7258   13.7879 C   0  0  0  0  0  0  0  0  0  0  0  0
   22.6938    8.8144   13.5547 C   0  0  0  0  0  0  0  0  0  0  0  0
   25.6282   12.0085   11.6380 O   0  0  0  0  0  0  0  0  0  0  0  0
   25.0403   12.1844    9.6273 O   0  0  0  0  0  0  0  0  0  0  0  0
  2  1  1  6
  2  3  1  0
  2  4  1  0
  3  5  1  1
  4  6  1  6
  3  7  1  0
  4  8  1  0
  6  9  1  0
  5 10  1  0
 10 11  1  6
  7 12  1  6
  8 12  1  0
 11 13  1  0
  8 14  1  1
 11 15  1  0
 10 16  1  0
  7 17  1  0
 16 17  1  0
 14 18  1  0
 14 19  2  0
M  END
$$$$
9
     RDKit          3D

 12 12  0  0  0  0  0  0  0  0999 V2000
   21.3345    7.1603   13.1831 O   0  0  0  0  0  0  0  0  0  0  0  0
   22.6871    7.2238   12.9853 C   0  0  0  0  0  0  0  0  0  0  0  0
   23.4793    6.6916   13.4174 O   0  0  0  0  0  0  0  0  0  0  0  0
   23.0258    8.6503   12.3441 C   0  0  2  0  0  0  0  0  0  0  0  0
   22.9932    8.7109   10.9806 N   0  0  0  0  0  0  0  0  0  0  0  0
   23.7660    9.6213   12.9718 N   0  0  0  0  0  0  0  0  0  0  0  0
   23.8444   10.7919   12.4018 C   0  0  0  0  0  0  0  0  0  0  0  0
   22.3321    7.7785   10.1206 C   0  0  0  0  0  0  0  0  0  0  0  0
   23.0923   10.0753   10.4943 C   0  0  0  0  0  0  0  0  0  0  0  0
   23.6307   11.0239   11.1587 C   0  0  0  0  0  0  0  0  0  0  0  0
   24.2200   11.8382   13.4337 N   0  0  0  0  0  0  0  0  0  0  0  0
   21.6836    8.3987    9.1730 O   0  0  0  0  0  0  0  0  0  0  0  0
  1  2  1  0
  2  3  2  0
  4  2  1  6
  4  5  1  0
  4  6  1  0
  6  7  1  0
  5  8  1  0
  5  9  1  0
  7 10  1  0
  9 10  1  0
  7 11  1  0
  8 12  1  0
M  END
$$$$
90
     RDKit          3D

 19 20  0  0  0  0  0  0  0  0999 V2000
   21.5424    8.4662    8.8819 O   0  0  0  0  0  0  0  0  0  0  0  0
   22.2195    9.0191   10.0087 C   0  0  1  0  0  0  0  0  0  0  0  0
   22.1154    8.4099   11.3200 C   0  0  2  0  0  0  0  0  0  0  0  0
   23.2795    9.8964    9.8511 C   0  0  1  0  0  0  0  0  0  0  0  0
   21.3061    7.3140   11.5972 C   0  0  0  0  0  0  0  0  0  0  0  0
   23.6385   10.3485    8.5602 O   0  0  0  0  0  0  0  0  0  0  0  0
   22.7698    9.1196   12.4189 C   0  0  2  0  0  0  0  0  0  0  0  0
   23.9680   10.4422   10.8789 C   0  0  2  0  0  0  0  0  0  0  0  0
   24.6738    9.7125    7.8321 C   0  0  0  0  0  0  0  0  0  0  0  0
   21.3323    6.9154   12.9331 C   0  0  1  0  0  0  0  0  0  0  0  0
   20.8741    5.6583   13.2687 C   0  0  0  0  0  0  0  0  0  0  0  0
   23.6612   10.0377   12.1054 C   0  0  0  0  0  0  0  0  0  0  0  0
   19.6706    5.4596   13.5158 C   0  0  0  0  0  0  0  0  0  0  0  0
   24.9337   11.5192   10.5782 C   0  0  0  0  0  0  0  0  0  0  0  0
   21.8903    5.2634   14.2575 C   0  0  0  0  0  0  0  0  0  0  0  0
   22.5498    7.2997   13.4519 O   0  0  0  0  0  0  0  0  0  0  0  0
   22.8035    8.5307   13.5735 N   0  0  0  0  0  0  0  0  0  0  0  0
   25.5347   12.0691   11.6808 O   0  0  0  0  0  0  0  0  0  0  0  0
   25.4245   11.8167    9.5252 O   0  0  0  0  0  0  0  0  0  0  0  0
  2  1  1  6
  2  3  1  0
  2  4  1  0
  3  5  1  1
  4  6  1  6
  3  7  1  0
  4  8  1  0
  6  9  1  0
  5 10  1  0
 10 11  1  6
  7 12  1  6
  8 12  1  0
 11 13  1  0
  8 14  1  1
 11 15  1  0
 10 16  1  0
  7 17  1  0
 16 17  1  0
 14 18  1  0
 14 19  2  0
M  END
$$$$
91
     RDKit          3D

 19 20  0  0  0  0  0  0  0  0999 V2000
   24.1941   12.4771   13.7587 O   0  0  0  0  0  0  0  0  0  0  0  0
   25.4931   12.2084   13.5793 C   0  0  0  0  0  0  0  0  0  0  0  0
   25.8638   11.5787   12.3877 N   0  0  0  0  0  0  0  0  0  0  0  0
   26.5120   12.1807   14.4371 N   0  0  0  0  0  0  0  0  0  0  0  0
   24.9834   11.0536   11.4007 C   0  0  1  0  0  0  0  0  0  0  0  0
   27.8103   12.3103   14.2388 C   0  0  1  0  0  0  0  0  0  0  0  0
   28.1141   12.2641   12.8698 C   0  0  0  0  0  0  0  0  0  0  0  0
   27.2199   11.7267   11.8723 C   0  0  0  0  0  0  0  0  0  0  0  0
   28.6678   12.6293   15.1304 N   0  0  0  0  0  0  0  0  0  0  0  0
   25.5008   10.9261   10.1467 O   0  0  0  0  0  0  0  0  0  0  0  0
   25.0549    9.9146    9.3160 C   0  0  1  0  0  0  0  0  0  0  0  0
   23.6442    9.8154    9.2416 C   0  0  0  0  0  0  0  0  0  0  0  0
   23.2440    9.7234   10.7633 C   0  0  2  0  0  0  0  0  0  0  0  0
   24.3719    9.8246   11.8840 C   0  0  2  0  0  0  0  0  0  0  0  0
   23.6731    9.9594   13.1713 O   0  0  0  0  0  0  0  0  0  0  0  0
   25.6299   10.4044    7.8976 C   0  0  0  0  0  0  0  0  0  0  0  0
   25.6808    9.3322    7.0436 O   0  0  0  0  0  0  0  0  0  0  0  0
   22.2226    8.7967   11.2826 O   0  0  0  0  0  0  0  0  0  0  0  0
   23.1211    9.2417    8.2233 O   0  0  0  0  0  0  0  0  0  0  0  0
  1  2  2  0
  2  3  1  0
  2  4  1  0
  5  3  1  1
  4  6  1  0
  6  7  1  0
  3  8  1  0
  7  8  1  0
  6  9  1  6
  5 10  1  0
 10 11  1  0
 11 12  1  0
 12 13  1  0
  5 14  1  0
 13 14  1  0
 14 15  1  1
 11 16  1  6
 16 17  1  0
 13 18  1  6
 12 19  2  0
M  END
$$$$
92
     RDKit          3D

 19 19  0  0  0  0  0  0  0  0999 V2000
   25.7896    6.5384    6.4570 O   0  0  0  0  0  0  0  0  0  0  0  0
   26.2229    7.7215    7.0027 C   0  0  0  0  0  0  0  0  0  0  0  0
   25.2335    8.5904    7.4753 C   0  0  0  0  0  0  0  0  0  0  0  0
   25.5381    9.5456    8.4819 C   0  0  1  0  0  0  0  0  0  0  0  0
   25.4403   10.9753    8.1187 C   0  0  0  0  0  0  0  0  0  0  0  0
   25.7389    9.2150    9.7430 O   0  0  0  0  0  0  0  0  0  0  0  0
   25.1779   10.1639   10.6460 C   0  0  1  0  0  0  0  0  0  0  0  0
   25.2701   11.5517   10.4028 C   0  0  2  0  0  0  0  0  0  0  0  0
   25.4225   11.8915    9.0529 C   0  0  1  0  0  0  0  0  0  0  0  0
   23.7226    9.8055   10.9543 C   0  0  0  0  0  0  0  0  0  0  0  0
   22.9316   10.7778   10.7573 O   0  0  0  0  0  0  0  0  0  0  0  0
   23.4076    8.6408   11.5989 N   0  0  0  0  0  0  0  0  0  0  0  0
   25.4704   12.4534   11.5202 O   0  0  0  0  0  0  0  0  0  0  0  0
   22.5128    8.5574   12.6992 C   0  0  0  0  0  0  0  0  0  0  0  0
   22.1671    7.2587   13.1264 C   0  0  0  0  0  0  0  0  0  0  0  0
   23.0247    6.4241   13.6137 O   0  0  0  0  0  0  0  0  0  0  0  0
   20.9022    7.1177   13.4614 O   0  0  0  0  0  0  0  0  0  0  0  0
   25.3549   11.2954    6.6928 O   0  0  0  0  0  0  0  0  0  0  0  0
   25.6899   13.1521    8.7244 O   0  0  0  0  0  0  0  0  0  0  0  0
  1  2  1  0
  2  3  1  0
  4  3  1  1
  4  5  1  0
  4  6  1  0
  6  7  1  0
  7  8  1  0
  5  9  1  0
  8  9  1  0
  7 10  1  6
 10 11  2  0
 10 12  1  0
  8 13  1  1
 12 14  1  0
 14 15  1  0
 15 16  2  0
 15 17  1  0
  5 18  1  0
  9 19  1  1
M  END
$$$$
93
     RDKit          3D

 19 20  0  0  0  0  0  0  0  0999 V2000
   22.5823    7.2262   13.5957 O   0  0  0  0  0  0  0  0  0  0  0  0
   22.8152    7.7170   12.5763 C   0  0  0  0  0  0  0  0  0  0  0  0
   22.0383    7.7553   11.5442 N   0  0  0  0  0  0  0  0  0  0  0  0
   23.3916    9.2689   12.7826 C   0  0  0  0  0  0  0  0  0  0  0  0
   23.5591    9.7629   11.7895 C   0  0  1  0  0  0  0  0  0  0  0  0
   22.1618    8.6446   10.4773 C   0  0  0  0  0  0  0  0  0  0  0  0
   22.9465    9.7549   10.6077 N   0  0  0  0  0  0  0  0  0  0  0  0
   24.5293   10.9681   11.9508 N   0  0  0  0  0  0  0  0  0  0  0  0
   25.7093   11.0013   11.3443 C   0  0  1  0  0  0  0  0  0  0  0  0
   25.8344   10.4952   10.1757 O   0  0  0  0  0  0  0  0  0  0  0  0
   24.0731   11.9754   12.9091 C   0  0  0  0  0  0  0  0  0  0  0  0
   23.1042   11.8368   13.6562 O   0  0  0  0  0  0  0  0  0  0  0  0
   26.6740   12.1150   11.5406 C   0  0  2  0  0  0  0  0  0  0  0  0
   27.9137   11.9835   11.1356 O   0  0  0  0  0  0  0  0  0  0  0  0
   26.5114   12.6763   12.9856 C   0  0  1  0  0  0  0  0  0  0  0  0
   21.4774    8.7181    9.3524 O   0  0  0  0  0  0  0  0  0  0  0  0
   25.1651   12.7128   13.6932 C   0  0  1  0  0  0  0  0  0  0  0  0
   27.5502   11.8580   13.7736 O   0  0  0  0  0  0  0  0  0  0  0  0
   24.9174   13.9807   14.0776 O   0  0  0  0  0  0  0  0  0  0  0  0
  1  2  2  0
  2  3  1  0
  2  4  1  0
  4  5  1  0
  3  6  1  0
  5  7  1  0
  6  7  1  0
  5  8  1  1
  8  9  1  0
  9 10  1  6
  8 11  1  0
 11 12  2  0
  9 13  1  0
 13 14  1  1
 13 15  1  0
  6 16  2  0
 11 17  1  0
 15 17  1  0
 15 18  1  1
 17 19  1  6
M  END
$$$$
94
     RDKit          3D

 19 19  0  0  0  0  0  0  0  0999 V2000
   23.8320   11.8126   13.6464 O   0  0  0  0  0  0  0  0  0  0  0  0
   24.5328   11.5610   12.5175 C   0  0  0  0  0  0  0  0  0  0  0  0
   25.6959   11.6435   12.4588 O   0  0  0  0  0  0  0  0  0  0  0  0
   23.7938   10.6902   11.4840 C   0  0  2  0  0  0  0  0  0  0  0  0
   23.1826    9.4657   11.9562 C   0  0  1  0  0  0  0  0  0  0  0  0
   23.9589   11.1184   10.2358 O   0  0  0  0  0  0  0  0  0  0  0  0
   25.1483   11.4763    9.6793 C   0  0  0  0  0  0  0  0  0  0  0  0
   25.3387   10.9562    8.2486 C   0  0  0  0  0  0  0  0  0  0  0  0
   25.3460    9.5276    8.3608 N   0  0  0  0  0  0  0  0  0  0  0  0
   25.0804   11.5971    7.2795 O   0  0  0  0  0  0  0  0  0  0  0  0
   25.6261    8.7331    7.2363 C   0  0  0  0  0  0  0  0  0  0  0  0
   22.6637    8.5549   10.9131 C   0  0  0  0  0  0  0  0  0  0  0  0
   26.3822    7.5824    7.3669 C   0  0  0  0  0  0  0  0  0  0  0  0
   22.6587    8.9561    9.5590 O   0  0  0  0  0  0  0  0  0  0  0  0
   21.9259    7.5827   11.2428 N   0  0  0  0  0  0  0  0  0  0  0  0
   23.3260    8.9069   13.2086 C   0  0  0  0  0  0  0  0  0  0  0  0
   21.6919    7.4118   12.6316 C   0  0  1  0  0  0  0  0  0  0  0  0
   20.9582    6.2961   12.9847 C   0  0  0  0  0  0  0  0  0  0  0  0
   22.4085    8.0875   13.5412 N   0  0  0  0  0  0  0  0  0  0  0  0
  1  2  1  0
  2  3  2  0
  2  4  1  0
  4  5  1  0
  4  6  1  6
  6  7  1  0
  7  8  1  0
  8  9  1  0
  8 10  2  0
  9 11  1  0
  5 12  1  0
 11 13  1  0
 12 14  2  0
 12 15  1  0
  5 16  1  6
 15 17  1  0
 17 18  1  1
 16 19  1  0
 17 19  1  0
M  END
$$$$
95
     RDKit          3D

 19 20  0  0  0  0  0  0  0  0999 V2000
   24.1941   12.4771   13.7587 O   0  0  0  0  0  0  0  0  0  0  0  0
   25.4931   12.2084   13.5793 C   0  0  0  0  0  0  0  0  0  0  0  0
   25.8638   11.5787   12.3877 N   0  0  0  0  0  0  0  0  0  0  0  0
   26.5120   12.1807   14.4371 N   0  0  0  0  0  0  0  0  0  0  0  0
   24.9834   11.0536   11.4007 C   0  0  1  0  0  0  0  0  0  0  0  0
   27.8103   12.3103   14.2388 C   0  0  1  0  0  0  0  0  0  0  0  0
   28.1141   12.2641   12.8698 C   0  0  0  0  0  0  0  0  0  0  0  0
   27.2199   11.7267   11.8723 C   0  0  0  0  0  0  0  0  0  0  0  0
   28.6678   12.6293   15.1304 N   0  0  0  0  0  0  0  0  0  0  0  0
   25.5008   10.9261   10.1467 O   0  0  0  0  0  0  0  0  0  0  0  0
   25.0549    9.9146    9.3160 C   0  0  1  0  0  0  0  0  0  0  0  0
   23.6442    9.8154    9.2416 C   0  0  1  0  0  0  0  0  0  0  0  0
   23.2440    9.7234   10.7633 C   0  0  2  0  0  0  0  0  0  0  0  0
   23.8912   10.3516   11.8158 C   0  0  1  0  0  0  0  0  0  0  0  0
   22.9469   10.9640    8.8336 O   0  0  0  0  0  0  0  0  0  0  0  0
   22.2180    8.7759   11.2245 O   0  0  0  0  0  0  0  0  0  0  0  0
   25.8135    9.8135    8.1169 C   0  0  0  0  0  0  0  0  0  0  0  0
   24.1759    9.4957   12.9692 O   0  0  0  0  0  0  0  0  0  0  0  0
   26.9880   10.3776    7.9861 O   0  0  0  0  0  0  0  0  0  0  0  0
  1  2  2  0
  2  3  1  0
  2  4  1  0
  5  3  1  1
  4  6  1  0
  6  7  1  0
  3  8  1  0
  7  8  1  0
  6  9  1  6
  5 10  1  0
 10 11  1  0
 11 12  1  0
 12 13  1  0
  5 14  1  0
 13 14  1  0
 12 15  1  1
 13 16  1  1
 11 17  1  6
 14 18  1  1
 17 19  1  0
M  END
$$$$
96
     RDKit          3D

 19 20  0  0  0  0  0  0  0  0999 V2000
   21.5424    8.4662    8.8819 O   0  0  0  0  0  0  0  0  0  0  0  0
   22.2195    9.0191   10.0087 C   0  0  1  0  0  0  0  0  0  0  0  0
   22.1154    8.4099   11.3200 C   0  0  2  0  0  0  0  0  0  0  0  0
   23.7282    9.1524    9.6199 C   0  0  2  0  0  0  0  0  0  0  0  0
   22.8729    9.0650   12.4425 C   0  0  0  0  0  0  0  0  0  0  0  0
   24.2126    9.4879   12.1479 O   0  0  0  0  0  0  0  0  0  0  0  0
   22.3605    9.0061   13.6496 O   0  0  0  0  0  0  0  0  0  0  0  0
   24.4499   10.0174   10.8179 C   0  0  2  0  0  0  0  0  0  0  0  0
   24.0473    9.8465    8.4559 O   0  0  0  0  0  0  0  0  0  0  0  0
   24.0900   11.3804   10.5941 C   0  0  1  0  0  0  0  0  0  0  0  0
   24.8034   12.1663   11.6348 O   0  0  0  0  0  0  0  0  0  0  0  0
   22.6218    7.0494   11.2811 O   0  0  0  0  0  0  0  0  0  0  0  0
   24.3879   11.9530    9.4033 C   0  0  2  0  0  0  0  0  0  0  0  0
   24.6644   10.8965    8.3206 C   0  0  1  0  0  0  0  0  0  0  0  0
   26.1714   10.5536    8.2748 C   0  0  2  0  0  0  0  0  0  0  0  0
   25.5087   12.8263    9.6582 O   0  0  0  0  0  0  0  0  0  0  0  0
   26.4221    9.5140    7.3211 C   0  0  0  0  0  0  0  0  0  0  0  0
   25.9346    8.2535    7.8284 O   0  0  0  0  0  0  0  0  0  0  0  0
   26.7948   10.2496    9.5320 O   0  0  0  0  0  0  0  0  0  0  0  0
  2  1  1  6
  2  3  1  0
  2  4  1  0
  3  5  1  0
  5  6  1  0
  5  7  2  0
  4  8  1  0
  8  6  1  1
  4  9  1  6
  8 10  1  0
 10 11  1  1
  3 12  1  6
 10 13  1  0
 14  9  1  1
 13 14  1  0
 14 15  1  0
 13 16  1  1
 15 17  1  0
 17 18  1  0
 15 19  1  1
M  END
$$$$
97
     RDKit          3D

 19 19  0  0  0  0  0  0  0  0999 V2000
   24.1941   12.4771   13.7587 O   0  0  0  0  0  0  0  0  0  0  0  0
   24.8291   11.8892   12.7425 C   0  0  0  0  0  0  0  0  0  0  0  0
   26.0037   12.2811   12.3665 N   0  0  0  0  0  0  0  0  0  0  0  0
   24.2609   10.8135   11.9062 C   0  0  2  0  0  0  0  0  0  0  0  0
   24.6259   10.5017   10.8235 C   0  0  0  0  0  0  0  0  0  0  0  0
   23.9112    9.4801    9.9840 N   0  0  0  0  0  0  0  0  0  0  0  0
   22.7617    9.0188   10.6723 C   0  0  0  0  0  0  0  0  0  0  0  0
   22.9563   10.2034   12.5005 C   0  0  0  0  0  0  0  0  0  0  0  0
   22.3891    9.2559   11.8829 C   0  0  2  0  0  0  0  0  0  0  0  0
   21.9850    8.1690    9.6023 O   0  0  0  0  0  0  0  0  0  0  0  0
   24.3143    9.0927    8.6871 C   0  0  0  0  0  0  0  0  0  0  0  0
   24.9657   10.1274    8.0263 O   0  0  0  0  0  0  0  0  0  0  0  0
   22.4816    7.9723   12.5265 C   0  0  0  0  0  0  0  0  0  0  0  0
   26.8417   13.1560   13.1190 C   0  0  0  0  0  0  0  0  0  0  0  0
   21.4943    7.3289   12.9921 O   0  0  0  0  0  0  0  0  0  0  0  0
   27.9569   12.6465   13.7943 C   0  0  0  0  0  0  0  0  0  0  0  0
   23.5524    7.2242   12.5597 O   0  0  0  0  0  0  0  0  0  0  0  0
   29.1898   13.1628   13.8180 O   0  0  0  0  0  0  0  0  0  0  0  0
   27.7922   11.4998   14.4291 O   0  0  0  0  0  0  0  0  0  0  0  0
  1  2  2  0
  2  3  1  0
  4  2  1  6
  4  5  1  0
  5  6  1  0
  6  7  1  0
  4  8  1  0
  7  9  1  0
  8  9  1  0
  7 10  1  0
  6 11  1  0
 11 12  1  0
  9 13  1  1
  3 14  1  0
 13 15  2  0
 14 16  1  0
 13 17  1  0
 16 18  2  0
 16 19  1  0
M  END
$$$$
98
     RDKit          3D

 19 20  0  0  0  0  0  0  0  0999 V2000
   21.5424    8.4662    8.8819 O   0  0  0  0  0  0  0  0  0  0  0  0
   22.2195    9.0191   10.0087 C   0  0  1  0  0  0  0  0  0  0  0  0
   22.1154    8.4099   11.3200 C   0  0  2  0  0  0  0  0  0  0  0  0
   23.2795    9.8964    9.8511 C   0  0  1  0  0  0  0  0  0  0  0  0
   21.3061    7.3140   11.5972 C   0  0  0  0  0  0  0  0  0  0  0  0
   23.6385   10.3485    8.5602 O   0  0  0  0  0  0  0  0  0  0  0  0
   22.7698    9.1196   12.4189 C   0  0  2  0  0  0  0  0  0  0  0  0
   23.9680   10.4422   10.8789 C   0  0  0  0  0  0  0  0  0  0  0  0
   24.6738    9.7125    7.8321 C   0  0  0  0  0  0  0  0  0  0  0  0
   21.3323    6.9154   12.9331 C   0  0  0  0  0  0  0  0  0  0  0  0
   20.8741    5.6583   13.2687 C   0  0  0  0  0  0  0  0  0  0  0  0
   23.6818   10.0947   12.0422 C   0  0  0  0  0  0  0  0  0  0  0  0
   25.0591   11.5252   10.6053 C   0  0  0  0  0  0  0  0  0  0  0  0
   25.6271   12.0010   11.7327 O   0  0  0  0  0  0  0  0  0  0  0  0
   21.9937    7.6272   13.8553 C   0  0  0  0  0  0  0  0  0  0  0  0
   22.6980    8.5063   13.5951 N   0  0  0  0  0  0  0  0  0  0  0  0
   25.9876   11.2050    9.6836 O   0  0  0  0  0  0  0  0  0  0  0  0
   19.6920    5.4556   13.4337 O   0  0  0  0  0  0  0  0  0  0  0  0
   21.6359    4.6206   13.0267 O   0  0  0  0  0  0  0  0  0  0  0  0
  2  1  1  6
  2  3  1  0
  2  4  1  0
  3  5  1  1
  4  6  1  6
  3  7  1  0
  4  8  1  0
  6  9  1  0
  5 10  1  0
 10 11  1  0
  7 12  1  6
  8 12  1  0
  8 13  1  0
 13 14  1  0
 10 15  2  0
  7 16  1  0
 15 16  1  0
 13 17  2  0
 11 18  1  0
 11 19  2  0
M  END
$$$$
99
     RDKit          3D

 19 19  0  0  0  0  0  0  0  0999 V2000
   23.8320   11.8126   13.6464 O   0  0  0  0  0  0  0  0  0  0  0  0
   24.5328   11.5610   12.5175 C   0  0  0  0  0  0  0  0  0  0  0  0
   25.6959   11.6435   12.4588 O   0  0  0  0  0  0  0  0  0  0  0  0
   23.7938   10.6902   11.4840 C   0  0  2  0  0  0  0  0  0  0  0  0
   23.1826    9.4657   11.9562 C   0  0  1  0  0  0  0  0  0  0  0  0
   23.9589   11.1184   10.2358 O   0  0  0  0  0  0  0  0  0  0  0  0
   25.1483   11.4763    9.6793 C   0  0  0  0  0  0  0  0  0  0  0  0
   25.3387   10.9562    8.2486 C   0  0  0  0  0  0  0  0  0  0  0  0
   25.3460    9.5276    8.3608 N   0  0  0  0  0  0  0  0  0  0  0  0
   25.0804   11.5971    7.2795 O   0  0  0  0  0  0  0  0  0  0  0  0
   22.8095    9.0837   13.1829 C   0  0  0  0  0  0  0  0  0  0  0  0
   22.0866    7.8162   13.2526 C   0  0  0  0  0  0  0  0  0  0  0  0
   22.8530    8.4997   10.8965 C   0  0  0  0  0  0  0  0  0  0  0  0
   25.0561    8.6928    7.2232 C   0  0  0  0  0  0  0  0  0  0  0  0
   22.2210    7.3983   11.0017 N   0  0  0  0  0  0  0  0  0  0  0  0
   22.0205    7.0014   12.1910 C   0  0  2  0  0  0  0  0  0  0  0  0
   21.4249    5.8668   12.4804 C   0  0  0  0  0  0  0  0  0  0  0  0
   26.1248    7.6316    7.1046 C   0  0  0  0  0  0  0  0  0  0  0  0
   22.2469    4.8296   12.8825 C   0  0  0  0  0  0  0  0  0  0  0  0
  1  2  1  0
  2  3  2  0
  2  4  1  0
  4  5  1  0
  4  6  1  6
  6  7  1  0
  7  8  1  0
  8  9  1  0
  8 10  2  0
  5 11  1  6
 11 12  1  0
  5 13  1  0
  9 14  1  0
 13 15  1  0
 12 16  1  0
 15 16  1  0
 16 17  1  6
 14 18  1  0
 17 19  1  0
M  END
$$$$
