0
     RDKit          3D

 12 13  0  0  0  0  0  0  0  0999 V2000
  110.3578   18.6364    8.9353 C   0  0  0  0  0  0  0  0  0  0  0  0
  111.3762   18.3791    9.6737 C   0  0  0  0  0  0  0  0  0  0  0  0
  111.4224   18.6062   11.0855 C   0  0  1  0  0  0  0  0  0  0  0  0
  112.5046   18.2618   11.9518 C   0  0  0  0  0  0  0  0  0  0  0  0
  109.3382   19.5495    9.3979 C   0  0  0  0  0  0  0  0  0  0  0  0
  109.2786   19.8139   10.7633 C   0  0  0  0  0  0  0  0  0  0  0  0
  110.3198   19.4132   11.6225 C   0  0  0  0  0  0  0  0  0  0  0  0
  108.1205   20.5609   11.2566 C   0  0  0  0  0  0  0  0  0  0  0  0
  108.1026   21.0378   12.4756 N   0  0  0  0  0  0  0  0  0  0  0  0
  107.0303   20.8478   10.5418 N   0  0  0  0  0  0  0  0  0  0  0  0
  106.8685   21.7621   12.6872 C   0  0  0  0  0  0  0  0  0  0  0  0
  106.1999   21.5821   11.3659 C   0  0  0  0  0  0  0  0  0  0  0  0
  1  2  1  0
  2  3  1  0
  3  4  1  6
  1  5  1  0
  5  6  1  0
  3  7  1  0
  6  7  1  0
  6  8  1  0
  8  9  1  0
  8 10  2  0
  9 11  1  0
 10 12  1  0
 11 12  2  0
M  END
$$$$
1
     RDKit          3D

 13 14  0  0  0  0  0  0  0  0999 V2000
  112.0458   17.8737    9.7681 O   0  0  0  0  0  0  0  0  0  0  0  0
  111.2777   18.5799   10.5262 C   0  0  0  0  0  0  0  0  0  0  0  0
  110.0818   18.9910   10.1224 N   0  0  0  0  0  0  0  0  0  0  0  0
  109.1859   19.7491   10.8426 C   0  0  2  0  0  0  0  0  0  0  0  0
  111.7361   18.8200   11.8865 C   0  0  2  0  0  0  0  0  0  0  0  0
  110.8335   19.6673   12.6513 C   0  0  0  0  0  0  0  0  0  0  0  0
  108.0038   20.1680   10.3240 C   0  0  0  0  0  0  0  0  0  0  0  0
  113.0278   18.2817   12.3180 C   0  0  0  0  0  0  0  0  0  0  0  0
  109.6384   20.1197   12.0623 C   0  0  0  0  0  0  0  0  0  0  0  0
  107.3911   19.6994    9.1706 C   0  0  0  0  0  0  0  0  0  0  0  0
  107.3001   21.1720   11.1025 C   0  0  0  0  0  0  0  0  0  0  0  0
  107.8173   21.4687   12.2606 C   0  0  0  0  0  0  0  0  0  0  0  0
  108.8574   20.9643   12.7732 C   0  0  0  0  0  0  0  0  0  0  0  0
  1  2  2  0
  2  3  1  0
  4  3  1  6
  2  5  1  0
  5  6  1  0
  4  7  1  0
  5  8  1  6
  4  9  1  0
  6  9  1  0
  7 10  1  0
  7 11  1  0
 11 12  1  0
  9 13  1  0
 12 13  1  0
M  END
$$$$
10
     RDKit          3D

 17 20  0  0  0  0  0  0  0  0999 V2000
  109.3736   19.7959   20.5107 C   0  0  0  0  0  0  0  0  0  0  0  0
  108.6827   19.2455   21.3427 C   0  0  0  0  0  0  0  0  0  0  0  0
  108.8334   19.5856   19.1364 N   0  0  0  0  0  0  0  0  0  0  0  0
  107.2273   18.9861   20.7869 C   0  0  2  0  0  0  0  0  0  0  0  0
  106.1144   18.4782   21.3004 C   0  0  0  0  0  0  0  0  0  0  0  0
  107.5800   18.9879   19.4057 C   0  0  1  0  0  0  0  0  0  0  0  0
  105.1031   18.1698   20.3703 N   0  0  0  0  0  0  0  0  0  0  0  0
  106.5780   18.6834   18.4637 C   0  0  1  0  0  0  0  0  0  0  0  0
  105.3232   18.3133   19.0313 C   0  0  1  0  0  0  0  0  0  0  0  0
  106.7014   18.8675   17.0369 N   0  0  0  0  0  0  0  0  0  0  0  0
  104.3923   17.9919   18.0043 N   0  0  0  0  0  0  0  0  0  0  0  0
  105.6847   18.5085   16.3390 C   0  0  0  0  0  0  0  0  0  0  0  0
  104.4999   18.0947   16.7731 C   0  0  1  0  0  0  0  0  0  0  0  0
  103.3099   17.6672   15.7675 C   0  0  0  0  0  0  0  0  0  0  0  0
  103.7094   17.6496   14.4708 C   0  0  0  0  0  0  0  0  0  0  0  0
  104.9054   18.2277   13.9448 C   0  0  0  0  0  0  0  0  0  0  0  0
  105.9075   18.6582   14.8388 C   0  0  0  0  0  0  0  0  0  0  0  0
  1  2  1  0
  1  3  1  0
  4  2  1  1
  4  5  1  0
  6  3  1  6
  4  6  1  0
  5  7  1  0
  6  8  1  0
  9  7  1  1
  8  9  1  0
  8 10  1  6
  9 11  1  0
 10 12  1  0
 11 13  1  0
 12 13  1  0
 13 14  1  6
 14 15  1  0
 15 16  1  0
 12 17  1  0
 16 17  1  0
M  END
$$$$
100
     RDKit          3D

 23 27  0  0  0  0  0  0  0  0999 V2000
  109.3736   19.7959   20.5107 C   0  0  0  0  0  0  0  0  0  0  0  0
  108.6827   19.2455   21.3427 C   0  0  0  0  0  0  0  0  0  0  0  0
  108.8334   19.5856   19.1364 N   0  0  0  0  0  0  0  0  0  0  0  0
  107.2273   18.9861   20.7869 C   0  0  2  0  0  0  0  0  0  0  0  0
  106.1144   18.4782   21.3004 N   0  0  0  0  0  0  0  0  0  0  0  0
  105.1237   18.2174   20.5596 C   0  0  0  0  0  0  0  0  0  0  0  0
  107.3343   19.1891   19.4015 C   0  0  2  0  0  0  0  0  0  0  0  0
  106.3502   18.8344   18.5377 C   0  0  1  0  0  0  0  0  0  0  0  0
  105.1990   18.3997   19.1554 N   0  0  0  0  0  0  0  0  0  0  0  0
  106.3656   19.0030   17.1569 N   0  0  0  0  0  0  0  0  0  0  0  0
  107.4311   19.5126   16.4701 C   0  0  2  0  0  0  0  0  0  0  0  0
  108.5714   19.7090   16.9012 O   0  0  0  0  0  0  0  0  0  0  0  0
  105.1945   18.6349   16.4252 C   0  0  0  0  0  0  0  0  0  0  0  0
  107.2780   20.3096   15.2499 C   0  0  0  0  0  0  0  0  0  0  0  0
  106.1409   19.7621   14.4427 N   0  0  0  0  0  0  0  0  0  0  0  0
  105.0925   19.0962   15.1335 C   0  0  1  0  0  0  0  0  0  0  0  0
  109.2284   19.8495   18.0917 C   0  0  0  0  0  0  0  0  0  0  0  0
  106.4520   19.4910   13.1411 C   0  0  0  0  0  0  0  0  0  0  0  0
  104.3606   17.9979   14.2891 C   0  0  2  0  0  0  0  0  0  0  0  0
  107.4303   20.1245   12.4664 N   0  0  0  0  0  0  0  0  0  0  0  0
  105.6373   18.6237   12.4196 N   0  0  0  0  0  0  0  0  0  0  0  0
  104.6635   17.9768   12.9936 N   0  0  0  0  0  0  0  0  0  0  0  0
  102.9460   17.9162   14.6882 C   0  0  0  0  0  0  0  0  0  0  0  0
  1  2  1  0
  1  3  1  0
  4  2  1  6
  4  5  1  0
  5  6  1  0
  7  3  1  6
  4  7  1  0
  7  8  1  0
  6  9  1  0
  8  9  1  1
  8 10  1  0
 10 11  1  0
 11 12  1  0
 10 13  1  0
 11 14  1  1
 14 15  1  0
 16 13  1  1
 15 16  1  0
  3 17  1  0
 12 17  1  0
 15 18  1  0
 16 19  1  0
 18 20  1  0
 18 21  2  0
 19 22  1  0
 21 22  1  0
 19 23  1  6
M  END
$$$$
101
     RDKit          3D

 23 25  0  0  0  0  0  0  0  0999 V2000
  108.9002   19.2792   21.6719 N   0  0  0  0  0  0  0  0  0  0  0  0
  109.2705   19.1264   20.4637 C   0  0  0  0  0  0  0  0  0  0  0  0
  107.5557   19.0244   21.9191 C   0  0  0  0  0  0  0  0  0  0  0  0
  106.7369   18.7709   20.7399 C   0  0  1  0  0  0  0  0  0  0  0  0
  107.0133   18.9894   23.2543 N   0  0  0  0  0  0  0  0  0  0  0  0
  107.1798   18.7462   19.5194 C   0  0  0  0  0  0  0  0  0  0  0  0
  108.5197   19.0249   19.2984 N   0  0  0  0  0  0  0  0  0  0  0  0
  105.3085   18.4346   21.0500 N   0  0  0  0  0  0  0  0  0  0  0  0
  106.0859   18.4722   18.6934 N   0  0  0  0  0  0  0  0  0  0  0  0
  105.0188   18.3642   19.5609 C   0  0  0  0  0  0  0  0  0  0  0  0
  106.1899   18.3879   17.2459 C   0  0  0  0  0  0  0  0  0  0  0  0
  105.1261   19.1808   16.6129 C   0  0  0  0  0  0  0  0  0  0  0  0
  105.0640   18.8311   15.2439 N   0  0  0  0  0  0  0  0  0  0  0  0
  104.1868   17.7733   14.9666 C   0  0  0  0  0  0  0  0  0  0  0  0
  103.5499   17.1741   15.9096 O   0  0  0  0  0  0  0  0  0  0  0  0
  105.9315   19.5256   14.3220 C   0  0  0  0  0  0  0  0  0  0  0  0
  104.3663   17.1573   13.6807 O   0  0  0  0  0  0  0  0  0  0  0  0
  107.1144   20.0442   14.6494 C   0  0  0  0  0  0  0  0  0  0  0  0
  105.4329   19.6913   12.9688 C   0  0  0  0  0  0  0  0  0  0  0  0
  107.9621   20.7390   13.7745 C   0  0  0  0  0  0  0  0  0  0  0  0
  106.2774   20.4181   12.0711 C   0  0  0  0  0  0  0  0  0  0  0  0
  107.4848   20.8267   12.4737 C   0  0  0  0  0  0  0  0  0  0  0  0
  108.5334   21.6332   11.3421 Cl  0  0  0  0  0  0  0  0  0  0  0  0
  1  2  1  0
  1  3  1  0
  3  4  1  0
  3  5  1  0
  4  6  1  0
  2  7  1  0
  6  7  1  0
  4  8  1  1
  6  9  1  0
  8 10  1  0
  9 10  1  0
  9 11  1  0
 11 12  1  0
 12 13  1  0
 13 14  1  0
 14 15  1  0
 13 16  1  0
 14 17  2  0
 16 18  1  0
 16 19  1  0
 18 20  1  0
 19 21  1  0
 20 22  1  0
 21 22  1  0
 22 23  1  0
M  END
$$$$
102
     RDKit          3D

 23 26  0  0  0  0  0  0  0  0999 V2000
  109.3736   19.7959   20.5107 C   0  0  0  0  0  0  0  0  0  0  0  0
  108.7626   19.6935   19.3488 N   0  0  0  0  0  0  0  0  0  0  0  0
  108.7098   19.3317   21.5964 N   0  0  0  0  0  0  0  0  0  0  0  0
  107.3404   18.9811   21.1786 C   0  0  1  0  0  0  0  0  0  0  0  0
  109.0728   19.8995   18.0210 C   0  0  0  0  0  0  0  0  0  0  0  0
  107.4545   19.1323   19.7864 C   0  0  0  0  0  0  0  0  0  0  0  0
  108.1303   19.6346   17.0522 C   0  0  2  0  0  0  0  0  0  0  0  0
  106.4675   18.8612   18.7554 C   0  0  0  0  0  0  0  0  0  0  0  0
  106.3583   18.3519   21.7286 N   0  0  0  0  0  0  0  0  0  0  0  0
  108.2950   19.8592   15.7139 N   0  0  0  0  0  0  0  0  0  0  0  0
  107.4525   20.2305   14.8587 C   0  0  1  0  0  0  0  0  0  0  0  0
  106.7828   19.1353   17.4756 C   0  0  0  0  0  0  0  0  0  0  0  0
  105.8897   19.0527   16.3365 N   0  0  0  0  0  0  0  0  0  0  0  0
  107.7742   20.4583   13.5551 C   0  0  0  0  0  0  0  0  0  0  0  0
  106.2056   19.2786   14.9573 C   0  0  1  0  0  0  0  0  0  0  0  0
  106.6105   20.6507   12.6296 C   0  0  0  0  0  0  0  0  0  0  0  0
  105.2506   19.0572   14.0015 C   0  0  1  0  0  0  0  0  0  0  0  0
  105.5969   19.6077   12.7033 C   0  0  0  0  0  0  0  0  0  0  0  0
  104.4123   17.9057   14.2471 C   0  0  0  0  0  0  0  0  0  0  0  0
  103.2360   18.2379   14.7982 N   0  0  0  0  0  0  0  0  0  0  0  0
  104.8727   16.7484   14.1611 O   0  0  0  0  0  0  0  0  0  0  0  0
  102.3755   17.1615   15.1528 C   0  0  0  0  0  0  0  0  0  0  0  0
  101.1321   17.7754   15.9607 C   0  0  0  0  0  0  0  0  0  0  0  0
  1  2  1  0
  1  3  1  0
  3  4  1  0
  2  5  1  0
  2  6  1  0
  4  6  1  0
  7  5  1  1
  6  8  1  0
  4  9  1  6
  7 10  1  0
 10 11  1  0
  7 12  1  0
  8 12  1  0
 12 13  1  0
 11 14  1  6
 11 15  1  0
 15 13  1  1
 14 16  1  0
 15 17  1  0
 16 18  1  0
 17 18  1  0
 17 19  1  6
 19 20  1  0
 19 21  2  0
 20 22  1  0
 22 23  1  0
M  END
$$$$
103
     RDKit          3D

 23 26  0  0  0  0  0  0  0  0999 V2000
  109.3736   19.7959   20.5107 C   0  0  0  0  0  0  0  0  0  0  0  0
  108.6827   19.2455   21.3427 C   0  0  0  0  0  0  0  0  0  0  0  0
  108.8334   19.5856   19.1364 N   0  0  0  0  0  0  0  0  0  0  0  0
  107.2273   18.9861   20.7869 C   0  0  2  0  0  0  0  0  0  0  0  0
  106.1144   18.4782   21.3004 N   0  0  0  0  0  0  0  0  0  0  0  0
  105.1237   18.2174   20.5596 C   0  0  0  0  0  0  0  0  0  0  0  0
  107.3343   19.1891   19.4015 C   0  0  2  0  0  0  0  0  0  0  0  0
  106.3502   18.8344   18.5377 C   0  0  1  0  0  0  0  0  0  0  0  0
  105.1990   18.3997   19.1554 N   0  0  0  0  0  0  0  0  0  0  0  0
  106.3656   19.0030   17.1569 N   0  0  0  0  0  0  0  0  0  0  0  0
  107.4311   19.5126   16.4701 C   0  0  2  0  0  0  0  0  0  0  0  0
  108.5714   19.7090   16.9012 O   0  0  0  0  0  0  0  0  0  0  0  0
  105.1945   18.6349   16.4252 C   0  0  0  0  0  0  0  0  0  0  0  0
  107.2780   20.3096   15.2499 C   0  0  1  0  0  0  0  0  0  0  0  0
  105.1290   18.9355   15.0461 C   0  0  2  0  0  0  0  0  0  0  0  0
  108.3748   20.7059   14.5874 N   0  0  0  0  0  0  0  0  0  0  0  0
  103.9737   18.5021   14.3382 C   0  0  1  0  0  0  0  0  0  0  0  0
  106.2492   19.4781   14.2704 C   0  0  1  0  0  0  0  0  0  0  0  0
  108.4428   20.6431   13.1085 C   0  0  0  0  0  0  0  0  0  0  0  0
  106.4770   19.5131   13.0079 C   0  0  0  0  0  0  0  0  0  0  0  0
  107.5439   19.9481   12.4992 N   0  0  0  0  0  0  0  0  0  0  0  0
  103.8674   17.1389   13.9176 N   0  0  0  0  0  0  0  0  0  0  0  0
  102.7327   18.9027   15.0264 C   0  0  0  0  0  0  0  0  0  0  0  0
  1  2  1  0
  1  3  1  0
  4  2  1  6
  4  5  1  0
  5  6  1  0
  7  3  1  6
  4  7  1  0
  7  8  1  0
  6  9  1  0
  8  9  1  0
  8 10  1  6
 10 11  1  0
 11 12  1  1
 10 13  1  0
 11 14  1  0
 15 13  1  6
 14 16  1  6
 15 17  1  0
 14 18  1  0
 15 18  1  0
 16 19  1  0
 18 20  1  6
 19 21  1  0
 20 21  1  0
 17 22  1  0
 17 23  1  1
M  END
$$$$
104
     RDKit          3D

 23 25  0  0  0  0  0  0  0  0999 V2000
  109.9463   19.0478   20.8751 N   0  0  0  0  0  0  0  0  0  0  0  0
  109.6102   19.0502   19.5803 N   0  0  0  0  0  0  0  0  0  0  0  0
  108.2036   19.0450   19.3916 C   0  0  0  0  0  0  0  0  0  0  0  0
  108.7813   19.1577   21.6491 C   0  0  0  0  0  0  0  0  0  0  0  0
  107.5581   19.0473   20.6870 C   0  0  0  0  0  0  0  0  0  0  0  0
  107.5274   19.0014   18.0663 C   0  0  0  0  0  0  0  0  0  0  0  0
  106.1870   18.8511   18.0051 C   0  0  1  0  0  0  0  0  0  0  0  0
  105.5212   18.7615   16.7980 N   0  0  0  0  0  0  0  0  0  0  0  0
  106.1358   18.8997   15.5897 C   0  0  0  0  0  0  0  0  0  0  0  0
  104.1868   18.1348   16.9678 C   0  0  2  0  0  0  0  0  0  0  0  0
  105.4872   18.7464   14.4029 N   0  0  0  0  0  0  0  0  0  0  0  0
  106.0605   18.9714   13.1601 C   0  0  0  0  0  0  0  0  0  0  0  0
  106.0655   20.2378   12.7647 N   0  0  0  0  0  0  0  0  0  0  0  0
  104.4947   17.6090   14.2424 C   0  0  0  0  0  0  0  0  0  0  0  0
  105.4868   21.3331   13.3255 C   0  0  0  0  0  0  0  0  0  0  0  0
  103.4735   17.8923   15.4864 C   0  0  0  0  0  0  0  0  0  0  0  0
  106.8008   18.1928   12.4763 O   0  0  0  0  0  0  0  0  0  0  0  0
  103.6801   17.9169   18.1288 C   0  0  0  0  0  0  0  0  0  0  0  0
  107.1934   19.4375   15.3662 O   0  0  0  0  0  0  0  0  0  0  0  0
  104.2050   21.6334   13.0533 C   0  0  0  0  0  0  0  0  0  0  0  0
  103.3090   20.8831   13.6448 O   0  0  0  0  0  0  0  0  0  0  0  0
  104.7053   18.3277   19.1485 C   0  0  0  0  0  0  0  0  0  0  0  0
  103.7955   22.5575   12.1582 O   0  0  0  0  0  0  0  0  0  0  0  0
  1  2  1  0
  2  3  1  0
  1  4  1  0
  3  5  1  0
  4  5  1  0
  3  6  1  0
  7  6  1  6
  7  8  1  0
  8  9  1  0
  8 10  1  0
  9 11  1  0
 11 12  1  0
 12 13  1  0
 11 14  1  0
 13 15  1  0
 10 16  1  6
 14 16  1  0
 12 17  2  0
 10 18  1  0
  9 19  2  0
 15 20  1  0
 20 21  2  0
  7 22  1  0
 18 22  1  0
 20 23  1  0
M  END
$$$$
105
     RDKit          3D

 23 25  0  0  0  0  0  0  0  0999 V2000
  110.3281   18.7210   20.3105 O   0  0  0  0  0  0  0  0  0  0  0  0
  109.1667   19.1252   20.6192 C   0  0  0  0  0  0  0  0  0  0  0  0
  108.0605   19.1827   19.6664 C   0  0  1  0  0  0  0  0  0  0  0  0
  108.5330   19.2958   18.3119 N   0  0  0  0  0  0  0  0  0  0  0  0
  106.9102   18.5750   19.4730 C   0  0  1  0  0  0  0  0  0  0  0  0
  108.7599   19.4815   21.8226 O   0  0  0  0  0  0  0  0  0  0  0  0
  106.0135   17.9026   20.3097 C   0  0  0  0  0  0  0  0  0  0  0  0
  104.7649   17.5120   19.7943 N   0  0  0  0  0  0  0  0  0  0  0  0
  106.3898   18.7070   18.1045 C   0  0  0  0  0  0  0  0  0  0  0  0
  104.4827   17.8026   18.6145 C   0  0  2  0  0  0  0  0  0  0  0  0
  103.1255   17.3305   18.1114 C   0  0  0  0  0  0  0  0  0  0  0  0
  107.5286   19.3072   17.4469 C   0  0  2  0  0  0  0  0  0  0  0  0
  105.2413   18.4117   17.6541 N   0  0  0  0  0  0  0  0  0  0  0  0
  107.6571   19.4547   16.0098 N   0  0  0  0  0  0  0  0  0  0  0  0
  106.9987   19.8348   15.1581 C   0  0  0  0  0  0  0  0  0  0  0  0
  107.5020   20.0288   13.7968 C   0  0  0  0  0  0  0  0  0  0  0  0
  105.5807   19.8328   15.3098 O   0  0  0  0  0  0  0  0  0  0  0  0
  108.5750   20.8621   13.7922 C   0  0  0  0  0  0  0  0  0  0  0  0
  109.1923   21.1064   12.4680 C   0  0  0  0  0  0  0  0  0  0  0  0
  106.9432   19.4690   12.6061 C   0  0  0  0  0  0  0  0  0  0  0  0
  108.6502   20.5853   11.3018 C   0  0  0  0  0  0  0  0  0  0  0  0
  107.4959   19.7750   11.3755 C   0  0  0  0  0  0  0  0  0  0  0  0
  109.3934   20.9558    9.8364 Cl  0  0  0  0  0  0  0  0  0  0  0  0
  1  2  1  0
  3  2  1  1
  3  4  1  0
  3  5  1  0
  2  6  2  0
  5  7  1  1
  7  8  1  0
  5  9  1  0
  8 10  1  0
 10 11  1  6
  4 12  1  0
  9 12  1  0
  9 13  1  0
 10 13  1  0
 12 14  1  6
 14 15  1  0
 15 16  1  0
 15 17  2  0
 16 18  1  0
 18 19  1  0
 16 20  1  0
 19 21  1  0
 20 22  1  0
 21 22  1  0
 21 23  1  0
M  END
$$$$
106
     RDKit          3D

 23 26  0  0  0  0  0  0  0  0999 V2000
  110.3427   19.0079   20.3967 O   0  0  0  0  0  0  0  0  0  0  0  0
  109.2947   19.3126   20.2521 C   0  0  0  0  0  0  0  0  0  0  0  0
  108.2210   18.6243   20.4873 N   0  0  0  0  0  0  0  0  0  0  0  0
  106.8788   18.9377   19.9389 C   0  0  2  0  0  0  0  0  0  0  0  0
  105.7987   18.2119   20.1985 C   0  0  0  0  0  0  0  0  0  0  0  0
  109.0893   20.1594   18.9317 C   0  0  0  0  0  0  0  0  0  0  0  0
  108.0498   19.4122   18.0668 C   0  0  1  0  0  0  0  0  0  0  0  0
  106.9497   18.7927   18.4949 N   0  0  0  0  0  0  0  0  0  0  0  0
  108.0061   19.8686   16.6711 N   0  0  0  0  0  0  0  0  0  0  0  0
  106.0701   18.2588   17.7407 C   0  0  2  0  0  0  0  0  0  0  0  0
  105.8464   18.3482   16.5670 N   0  0  0  0  0  0  0  0  0  0  0  0
  106.9342   19.1448   15.9162 C   0  0  1  0  0  0  0  0  0  0  0  0
  105.0826   17.8973   18.8843 C   0  0  1  0  0  0  0  0  0  0  0  0
  107.0004   19.4132   14.4388 C   0  0  2  0  0  0  0  0  0  0  0  0
  107.8482   20.2058   13.8154 C   0  0  0  0  0  0  0  0  0  0  0  0
  105.9350   18.7373   13.6314 C   0  0  0  0  0  0  0  0  0  0  0  0
  107.9626   20.4831   12.5247 C   0  0  1  0  0  0  0  0  0  0  0  0
  103.8798   17.1459   18.6181 C   0  0  0  0  0  0  0  0  0  0  0  0
  108.9485   21.3451   11.9154 C   0  0  0  0  0  0  0  0  0  0  0  0
  106.0367   18.9369   12.2629 C   0  0  0  0  0  0  0  0  0  0  0  0
  109.2597   21.3451   10.7651 N   0  0  0  0  0  0  0  0  0  0  0  0
  107.0535   19.6930   11.7731 C   0  0  0  0  0  0  0  0  0  0  0  0
  109.5653   22.5692    9.9570 C   0  0  0  0  0  0  0  0  0  0  0  0
  1  2  2  0
  2  3  1  0
  3  4  1  0
  4  5  1  1
  2  6  1  0
  7  6  1  1
  4  8  1  0
  7  8  1  0
  7  9  1  0
  8 10  1  0
 10 11  1  6
 12  9  1  1
 11 12  1  0
  5 13  1  0
 10 13  1  0
 12 14  1  0
 14 15  1  1
 14 16  1  0
 17 15  1  1
 13 18  1  1
 17 19  1  0
 16 20  1  0
 19 21  2  3
 17 22  1  0
 20 22  1  0
 21 23  1  0
M  END
$$$$
107
     RDKit          3D

 23 28  0  0  0  0  0  0  0  0999 V2000
  109.3736   19.7959   20.5107 C   0  0  0  0  0  0  0  0  0  0  0  0
  108.6827   19.2455   21.3427 C   0  0  0  0  0  0  0  0  0  0  0  0
  108.8334   19.5856   19.1364 N   0  0  0  0  0  0  0  0  0  0  0  0
  107.2273   18.9861   20.7869 C   0  0  2  0  0  0  0  0  0  0  0  0
  106.1144   18.4782   21.3004 C   0  0  0  0  0  0  0  0  0  0  0  0
  107.5800   18.9879   19.4057 C   0  0  1  0  0  0  0  0  0  0  0  0
  105.1031   18.1698   20.3703 N   0  0  0  0  0  0  0  0  0  0  0  0
  106.5780   18.6834   18.4637 C   0  0  1  0  0  0  0  0  0  0  0  0
  105.3232   18.3133   19.0313 C   0  0  1  0  0  0  0  0  0  0  0  0
  106.7014   18.8675   17.0369 N   0  0  0  0  0  0  0  0  0  0  0  0
  104.3923   17.9919   18.0043 N   0  0  0  0  0  0  0  0  0  0  0  0
  104.6881   18.1038   16.7361 C   0  0  0  0  0  0  0  0  0  0  0  0
  107.9351   19.4261   16.5973 C   0  0  0  0  0  0  0  0  0  0  0  0
  107.9610   19.9536   15.3992 C   0  0  0  0  0  0  0  0  0  0  0  0
  105.8132   18.5440   16.2075 C   0  0  0  0  0  0  0  0  0  0  0  0
  105.9405   18.6314   14.7621 C   0  0  2  0  0  0  0  0  0  0  0  0
  103.6395   17.6959   15.6362 C   0  0  0  0  0  0  0  0  0  0  0  0
  107.1521   19.3776   14.4337 N   0  0  0  0  0  0  0  0  0  0  0  0
  107.2406   19.6736   12.9957 C   0  0  0  0  0  0  0  0  0  0  0  0
  105.0467   18.2074   13.8931 C   0  0  0  0  0  0  0  0  0  0  0  0
  106.5586   18.8532   12.1662 C   0  0  0  0  0  0  0  0  0  0  0  0
  103.8581   17.7566   14.5200 C   0  0  0  0  0  0  0  0  0  0  0  0
  105.3514   18.2966   12.5130 N   0  0  0  0  0  0  0  0  0  0  0  0
  1  2  1  0
  1  3  1  0
  4  2  1  1
  4  5  1  0
  6  3  1  6
  4  6  1  0
  5  7  1  0
  6  8  1  0
  9  7  1  1
  8  9  1  0
  8 10  1  6
  9 11  1  0
 11 12  1  0
 10 13  1  0
 13 14  1  0
 10 15  1  0
 12 15  1  0
 15 16  1  0
 12 17  1  0
 14 18  1  0
 16 18  1  0
 18 19  1  0
 16 20  1  1
 19 21  2  0
 17 22  1  0
 20 22  1  0
 20 23  1  0
 21 23  1  0
M  END
$$$$
108
     RDKit          3D

 23 26  0  0  0  0  0  0  0  0999 V2000
  109.3736   19.7959   20.5107 C   0  0  0  0  0  0  0  0  0  0  0  0
  108.7626   19.6935   19.3488 N   0  0  0  0  0  0  0  0  0  0  0  0
  108.7098   19.3317   21.5964 N   0  0  0  0  0  0  0  0  0  0  0  0
  107.3404   18.9811   21.1786 C   0  0  1  0  0  0  0  0  0  0  0  0
  109.0728   19.8995   18.0210 C   0  0  0  0  0  0  0  0  0  0  0  0
  107.4545   19.1323   19.7864 C   0  0  0  0  0  0  0  0  0  0  0  0
  108.1303   19.6346   17.0522 C   0  0  2  0  0  0  0  0  0  0  0  0
  106.4675   18.8612   18.7554 C   0  0  0  0  0  0  0  0  0  0  0  0
  106.3583   18.3519   21.7286 N   0  0  0  0  0  0  0  0  0  0  0  0
  108.2950   19.8592   15.7139 N   0  0  0  0  0  0  0  0  0  0  0  0
  107.4525   20.2305   14.8587 C   0  0  1  0  0  0  0  0  0  0  0  0
  106.7828   19.1353   17.4756 C   0  0  0  0  0  0  0  0  0  0  0  0
  105.8897   19.0527   16.3365 N   0  0  0  0  0  0  0  0  0  0  0  0
  107.7742   20.4583   13.5551 C   0  0  0  0  0  0  0  0  0  0  0  0
  106.2056   19.2786   14.9573 C   0  0  1  0  0  0  0  0  0  0  0  0
  106.6105   20.6507   12.6296 C   0  0  0  0  0  0  0  0  0  0  0  0
  105.2506   19.0572   14.0015 C   0  0  1  0  0  0  0  0  0  0  0  0
  105.5969   19.6077   12.7033 C   0  0  0  0  0  0  0  0  0  0  0  0
  104.4123   17.9057   14.2471 C   0  0  0  0  0  0  0  0  0  0  0  0
  103.2360   18.2379   14.7982 C   0  0  0  0  0  0  0  0  0  0  0  0
  104.8047   16.6953   13.8833 O   0  0  0  0  0  0  0  0  0  0  0  0
  102.6718   19.4083   14.8257 O   0  0  0  0  0  0  0  0  0  0  0  0
  102.4982   17.2428   15.3130 C   0  0  0  0  0  0  0  0  0  0  0  0
  1  2  1  0
  1  3  1  0
  3  4  1  0
  2  5  1  0
  2  6  1  0
  4  6  1  0
  7  5  1  1
  6  8  1  0
  4  9  1  6
  7 10  1  0
 10 11  1  0
  7 12  1  0
  8 12  1  0
 12 13  1  0
 11 14  1  6
 11 15  1  0
 15 13  1  1
 14 16  1  0
 15 17  1  0
 16 18  1  0
 17 18  1  0
 17 19  1  6
 19 20  1  0
 19 21  2  0
 20 22  1  0
 20 23  2  0
M  END
$$$$
109
     RDKit          3D

 23 25  0  0  0  0  0  0  0  0999 V2000
  109.9463   19.0478   20.8751 N   0  0  0  0  0  0  0  0  0  0  0  0
  109.6102   19.0502   19.5803 N   0  0  0  0  0  0  0  0  0  0  0  0
  108.2036   19.0450   19.3916 C   0  0  0  0  0  0  0  0  0  0  0  0
  108.7813   19.1577   21.6491 C   0  0  0  0  0  0  0  0  0  0  0  0
  107.5581   19.0473   20.6870 C   0  0  2  0  0  0  0  0  0  0  0  0
  107.5274   19.0014   18.0663 C   0  0  1  0  0  0  0  0  0  0  0  0
  106.1870   18.8511   18.0051 C   0  0  0  0  0  0  0  0  0  0  0  0
  106.1648   18.8340   20.5262 C   0  0  0  0  0  0  0  0  0  0  0  0
  105.4923   18.7409   19.3259 C   0  0  0  0  0  0  0  0  0  0  0  0
  105.4953   18.8115   16.7901 N   0  0  0  0  0  0  0  0  0  0  0  0
  104.3401   18.1311   16.5872 C   0  0  2  0  0  0  0  0  0  0  0  0
  103.7452   18.1565   15.1999 C   0  0  0  0  0  0  0  0  0  0  0  0
  103.2987   18.3642   17.6073 C   0  0  0  0  0  0  0  0  0  0  0  0
  106.4526   18.8329   15.6428 C   0  0  0  0  0  0  0  0  0  0  0  0
  102.7134   17.0198   18.2292 C   0  0  0  0  0  0  0  0  0  0  0  0
  102.7842   17.1114   14.9751 O   0  0  0  0  0  0  0  0  0  0  0  0
  107.3539   19.9030   15.6091 C   0  0  2  0  0  0  0  0  0  0  0  0
  108.1773   20.0661   14.4824 C   0  0  0  0  0  0  0  0  0  0  0  0
  108.2553   19.6795   16.9630 C   0  0  0  0  0  0  0  0  0  0  0  0
  107.7063   20.9729   13.5125 C   0  0  0  0  0  0  0  0  0  0  0  0
  106.7628   20.4515   12.7082 N   0  0  0  0  0  0  0  0  0  0  0  0
  105.6637   21.1086   12.5485 C   0  0  0  0  0  0  0  0  0  0  0  0
  106.9417   19.1585   11.9964 C   0  0  0  0  0  0  0  0  0  0  0  0
  1  2  1  0
  2  3  1  0
  1  4  1  0
  3  5  1  0
  5  4  1  1
  3  6  1  0
  6  7  1  0
  5  8  1  0
  7  9  1  0
  8  9  1  0
  7 10  1  0
 10 11  1  0
 11 12  1  6
 11 13  1  0
 10 14  1  0
 13 15  1  0
 12 16  1  0
 14 17  1  0
 17 18  1  6
  6 19  1  1
 17 19  1  0
 18 20  1  0
 20 21  1  0
 21 22  1  0
 21 23  1  0
M  END
$$$$
11
     RDKit          3D

 17 20  0  0  0  0  0  0  0  0999 V2000
  109.3736   19.7959   20.5107 C   0  0  0  0  0  0  0  0  0  0  0  0
  108.7626   19.6935   19.3488 N   0  0  0  0  0  0  0  0  0  0  0  0
  108.7098   19.3317   21.5964 N   0  0  0  0  0  0  0  0  0  0  0  0
  107.3404   18.9811   21.1786 C   0  0  0  0  0  0  0  0  0  0  0  0
  109.0728   19.8995   18.0210 C   0  0  0  0  0  0  0  0  0  0  0  0
  107.4545   19.1323   19.7864 C   0  0  0  0  0  0  0  0  0  0  0  0
  108.1303   19.6346   17.0522 C   0  0  0  0  0  0  0  0  0  0  0  0
  106.4675   18.8612   18.7554 C   0  0  2  0  0  0  0  0  0  0  0  0
  106.7682   19.1930   17.4653 C   0  0  2  0  0  0  0  0  0  0  0  0
  105.7699   18.9399   16.4230 N   0  0  0  0  0  0  0  0  0  0  0  0
  105.7914   19.1466   15.1132 C   0  0  0  0  0  0  0  0  0  0  0  0
  104.7670   17.9865   16.9707 C   0  0  2  0  0  0  0  0  0  0  0  0
  103.6935   17.8658   16.0524 C   0  0  0  0  0  0  0  0  0  0  0  0
  104.2980   18.3558   18.2956 C   0  0  0  0  0  0  0  0  0  0  0  0
  104.1056   17.9878   14.6549 C   0  0  0  0  0  0  0  0  0  0  0  0
  105.3056   18.3742   19.3108 C   0  0  0  0  0  0  0  0  0  0  0  0
  104.8692   18.9905   14.2548 N   0  0  0  0  0  0  0  0  0  0  0  0
  1  2  1  0
  1  3  1  0
  3  4  1  0
  2  5  1  0
  2  6  1  0
  4  6  1  0
  5  7  1  0
  6  8  1  0
  9  7  1  6
  8  9  1  0
  9 10  1  0
 10 11  1  0
 10 12  1  0
 12 13  1  6
 12 14  1  0
 13 15  1  0
  8 16  1  1
 14 16  1  0
 11 17  1  0
 15 17  1  0
M  END
$$$$
110
     RDKit          3D

 23 28  0  0  0  0  0  0  0  0999 V2000
  109.3736   19.7959   20.5107 C   0  0  0  0  0  0  0  0  0  0  0  0
  108.7626   19.6935   19.3488 N   0  0  0  0  0  0  0  0  0  0  0  0
  107.6689   19.1153   19.0447 C   0  0  0  0  0  0  0  0  0  0  0  0
  107.1314   19.0454   17.6821 C   0  0  1  0  0  0  0  0  0  0  0  0
  106.0549   18.7270   17.4508 N   0  0  0  0  0  0  0  0  0  0  0  0
  106.8822   18.4880   19.9912 C   0  0  1  0  0  0  0  0  0  0  0  0
  107.2931   18.6277   21.3351 N   0  0  0  0  0  0  0  0  0  0  0  0
  105.1863   18.1557   18.4370 C   0  0  0  0  0  0  0  0  0  0  0  0
  106.6410   18.3092   22.3638 C   0  0  0  0  0  0  0  0  0  0  0  0
  107.9625   19.6076   16.4762 C   0  0  0  0  0  0  0  0  0  0  0  0
  105.6201   18.1086   19.7424 N   0  0  0  0  0  0  0  0  0  0  0  0
  108.5971   19.2351   21.5532 C   0  0  0  0  0  0  0  0  0  0  0  0
  103.7204   17.5488   18.1769 C   0  0  0  0  0  0  0  0  0  0  0  0
  103.6186   17.3353   16.9287 C   0  0  2  0  0  0  0  0  0  0  0  0
  104.1770   18.2684   15.8677 C   0  0  1  0  0  0  0  0  0  0  0  0
  105.5621   18.7272   16.1035 C   0  0  1  0  0  0  0  0  0  0  0  0
  106.4415   19.3979   15.1729 C   0  0  1  0  0  0  0  0  0  0  0  0
  102.1949   17.1909   16.4598 C   0  0  0  0  0  0  0  0  0  0  0  0
  102.1127   17.8424   15.1826 C   0  0  0  0  0  0  0  0  0  0  0  0
  103.3297   18.4037   14.8190 N   0  0  0  0  0  0  0  0  0  0  0  0
  107.5818   19.7344   15.3908 C   0  0  0  0  0  0  0  0  0  0  0  0
  104.0945   18.5982   13.6850 C   0  0  0  0  0  0  0  0  0  0  0  0
  105.8387   19.0578   13.7755 C   0  0  0  0  0  0  0  0  0  0  0  0
  1  2  1  0
  2  3  1  0
  3  4  1  0
  4  5  1  0
  3  6  1  0
  6  7  1  0
  5  8  1  0
  7  9  1  0
  4 10  1  1
  6 11  1  1
  8 11  1  0
  1 12  1  0
  7 12  1  0
  8 13  1  0
 14 13  1  1
 14 15  1  0
 16  5  1  1
 15 16  1  0
 16 17  1  0
 14 18  1  0
 18 19  1  0
 15 20  1  6
 19 20  1  0
 10 21  1  0
 17 21  1  6
 20 22  1  0
 17 23  1  0
 22 23  1  0
M  END
$$$$
111
     RDKit          3D

 23 26  0  0  0  0  0  0  0  0999 V2000
  104.4707   17.3149   13.9455 C   0  0  0  0  0  0  0  0  0  0  0  0
  105.2041   18.2876   13.5263 C   0  0  2  0  0  0  0  0  0  0  0  0
  106.2829   18.1684   12.7167 N   0  0  0  0  0  0  0  0  0  0  0  0
  105.4994   19.3575   14.5842 C   0  0  1  0  0  0  0  0  0  0  0  0
  106.7856   19.2911   12.1569 C   0  0  2  0  0  0  0  0  0  0  0  0
  107.7255   19.2415   11.1460 N   0  0  0  0  0  0  0  0  0  0  0  0
  106.4871   20.6056   12.7672 C   0  0  0  0  0  0  0  0  0  0  0  0
  103.7101   17.3791   15.0753 C   0  0  1  0  0  0  0  0  0  0  0  0
  107.4150   19.6190    9.8801 C   0  0  0  0  0  0  0  0  0  0  0  0
  105.9373   20.6089   13.7687 C   0  0  0  0  0  0  0  0  0  0  0  0
  102.8399   16.4255   15.5878 N   0  0  0  0  0  0  0  0  0  0  0  0
  104.9630   19.4066   15.8030 C   0  0  0  0  0  0  0  0  0  0  0  0
  104.0521   18.3920   16.1193 C   0  0  1  0  0  0  0  0  0  0  0  0
  108.5414   19.4881    8.9039 C   0  0  1  0  0  0  0  0  0  0  0  0
  106.2790   19.6035    9.3311 O   0  0  0  0  0  0  0  0  0  0  0  0
  103.4008   18.4655   17.4556 C   0  0  0  0  0  0  0  0  0  0  0  0
  102.3207   17.6917   17.6177 N   0  0  0  0  0  0  0  0  0  0  0  0
  102.1755   16.5441   16.9340 C   0  0  0  0  0  0  0  0  0  0  0  0
  108.7587   20.6121    8.0481 C   0  0  0  0  0  0  0  0  0  0  0  0
  109.4724   18.7174    8.9081 N   0  0  0  0  0  0  0  0  0  0  0  0
  110.0428   20.5294    7.3904 N   0  0  0  0  0  0  0  0  0  0  0  0
  110.7375   18.8133    8.5085 C   0  0  0  0  0  0  0  0  0  0  0  0
  110.8758   19.6685    7.7057 C   0  0  0  0  0  0  0  0  0  0  0  0
  2  1  1  1
  2  3  1  0
  2  4  1  0
  3  5  1  0
  5  6  1  1
  5  7  1  0
  8  1  1  1
  6  9  1  0
  4 10  1  6
  7 10  1  0
  8 11  1  0
  4 12  1  0
  8 13  1  0
 13 12  1  6
 14  9  1  1
  9 15  2  0
 13 16  1  0
 16 17  1  0
 11 18  1  0
 17 18  1  0
 14 19  1  0
 14 20  1  0
 19 21  1  0
 20 22  1  0
 21 23  1  0
 22 23  1  0
M  END
$$$$
112
     RDKit          3D

 23 27  0  0  0  0  0  0  0  0999 V2000
  109.3736   19.7959   20.5107 C   0  0  0  0  0  0  0  0  0  0  0  0
  108.7626   19.6935   19.3488 N   0  0  0  0  0  0  0  0  0  0  0  0
  107.6689   19.1153   19.0447 C   0  0  0  0  0  0  0  0  0  0  0  0
  107.1314   19.0454   17.6821 C   0  0  1  0  0  0  0  0  0  0  0  0
  106.0549   18.7270   17.4508 N   0  0  0  0  0  0  0  0  0  0  0  0
  106.8822   18.4880   19.9912 C   0  0  1  0  0  0  0  0  0  0  0  0
  107.2931   18.6277   21.3351 N   0  0  0  0  0  0  0  0  0  0  0  0
  105.1863   18.1557   18.4370 C   0  0  0  0  0  0  0  0  0  0  0  0
  106.6410   18.3092   22.3638 C   0  0  0  0  0  0  0  0  0  0  0  0
  107.9625   19.6076   16.4762 C   0  0  0  0  0  0  0  0  0  0  0  0
  105.6201   18.1086   19.7424 N   0  0  0  0  0  0  0  0  0  0  0  0
  108.5971   19.2351   21.5532 C   0  0  0  0  0  0  0  0  0  0  0  0
  103.7204   17.5488   18.1769 C   0  0  0  0  0  0  0  0  0  0  0  0
  103.6186   17.3353   16.9287 C   0  0  2  0  0  0  0  0  0  0  0  0
  104.1770   18.2684   15.8677 C   0  0  1  0  0  0  0  0  0  0  0  0
  105.5621   18.7272   16.1035 C   0  0  1  0  0  0  0  0  0  0  0  0
  106.4415   19.3979   15.1729 C   0  0  2  0  0  0  0  0  0  0  0  0
  102.1949   17.1909   16.4598 C   0  0  0  0  0  0  0  0  0  0  0  0
  102.1127   17.8424   15.1826 C   0  0  0  0  0  0  0  0  0  0  0  0
  103.3297   18.4037   14.8190 N   0  0  0  0  0  0  0  0  0  0  0  0
  105.7829   19.4332   13.7841 O   0  0  0  0  0  0  0  0  0  0  0  0
  107.5936   19.7632   15.3589 C   0  0  0  0  0  0  0  0  0  0  0  0
  106.5996   19.1187   12.6951 C   0  0  0  0  0  0  0  0  0  0  0  0
  1  2  1  0
  2  3  1  0
  3  4  1  0
  4  5  1  0
  3  6  1  0
  6  7  1  0
  5  8  1  0
  7  9  1  0
  4 10  1  1
  6 11  1  1
  8 11  1  0
  1 12  1  0
  7 12  1  0
  8 13  1  0
 14 13  1  1
 14 15  1  0
 16  5  1  1
 15 16  1  0
 16 17  1  0
 14 18  1  0
 18 19  1  0
 15 20  1  6
 19 20  1  0
 17 21  1  6
 10 22  1  0
 17 22  1  0
 21 23  1  0
M  END
$$$$
113
     RDKit          3D

 23 25  0  0  0  0  0  0  0  0999 V2000
  109.8013   19.3697   20.6067 N   0  0  0  0  0  0  0  0  0  0  0  0
  108.5969   19.4180   20.5818 C   0  0  1  0  0  0  0  0  0  0  0  0
  108.0014   19.4228   19.2624 C   0  0  1  0  0  0  0  0  0  0  0  0
  108.8009   19.5809   18.0652 C   0  0  0  0  0  0  0  0  0  0  0  0
  108.1776   19.6385   16.7864 C   0  0  1  0  0  0  0  0  0  0  0  0
  107.7219   19.2340   21.5747 N   0  0  0  0  0  0  0  0  0  0  0  0
  106.6189   19.1523   18.9907 C   0  0  1  0  0  0  0  0  0  0  0  0
  106.2945   18.9903   17.7806 C   0  0  2  0  0  0  0  0  0  0  0  0
  109.0093   19.8560   15.6680 N   0  0  0  0  0  0  0  0  0  0  0  0
  106.9560   19.2006   16.8070 N   0  0  0  0  0  0  0  0  0  0  0  0
  104.7946   18.6227   17.6125 C   0  0  0  0  0  0  0  0  0  0  0  0
  106.0599   18.5955   20.1306 N   0  0  0  0  0  0  0  0  0  0  0  0
  104.5791   17.5047   16.9360 N   0  0  0  0  0  0  0  0  0  0  0  0
  106.5841   18.7249   21.3896 C   0  0  0  0  0  0  0  0  0  0  0  0
  103.2862   17.1567   16.5851 C   0  0  0  0  0  0  0  0  0  0  0  0
  102.6804   18.2479   15.9789 N   0  0  0  0  0  0  0  0  0  0  0  0
  102.9451   18.5012   14.6872 C   0  0  0  0  0  0  0  0  0  0  0  0
  104.3089   17.8464   14.2422 C   0  0  0  0  0  0  0  0  0  0  0  0
  105.3802   18.8058   14.0648 N   0  0  0  0  0  0  0  0  0  0  0  0
  104.6571   16.6862   14.1168 O   0  0  0  0  0  0  0  0  0  0  0  0
  106.5477   18.5072   13.5191 C   0  0  0  0  0  0  0  0  0  0  0  0
  107.4523   19.5936   13.4028 C   0  0  0  0  0  0  0  0  0  0  0  0
  108.0878   20.1104   14.6008 C   0  0  0  0  0  0  0  0  0  0  0  0
  2  1  1  6
  2  3  1  0
  3  4  1  6
  5  4  1  1
  2  6  1  0
  3  7  1  0
  7  8  1  0
  5  9  1  0
  5 10  1  0
  8 10  1  0
  8 11  1  6
  7 12  1  1
 11 13  1  0
  6 14  1  0
 12 14  1  0
 13 15  1  0
 15 16  1  0
 16 17  1  0
 17 18  1  0
 18 19  1  0
 18 20  2  0
 19 21  1  0
 21 22  1  0
  9 23  1  0
 22 23  1  0
M  END
$$$$
114
     RDKit          3D

 23 27  0  0  0  0  0  0  0  0999 V2000
  109.3736   19.7959   20.5107 C   0  0  0  0  0  0  0  0  0  0  0  0
  108.6827   19.2455   21.3427 C   0  0  0  0  0  0  0  0  0  0  0  0
  108.8334   19.5856   19.1364 N   0  0  0  0  0  0  0  0  0  0  0  0
  107.2273   18.9861   20.7869 C   0  0  2  0  0  0  0  0  0  0  0  0
  106.1144   18.4782   21.3004 N   0  0  0  0  0  0  0  0  0  0  0  0
  105.1237   18.2174   20.5596 C   0  0  0  0  0  0  0  0  0  0  0  0
  107.3343   19.1891   19.4015 C   0  0  2  0  0  0  0  0  0  0  0  0
  106.3502   18.8344   18.5377 C   0  0  1  0  0  0  0  0  0  0  0  0
  105.1990   18.3997   19.1554 N   0  0  0  0  0  0  0  0  0  0  0  0
  106.3656   19.0030   17.1569 N   0  0  0  0  0  0  0  0  0  0  0  0
  107.4311   19.5126   16.4701 C   0  0  2  0  0  0  0  0  0  0  0  0
  108.5714   19.7090   16.9012 O   0  0  0  0  0  0  0  0  0  0  0  0
  105.1945   18.6349   16.4252 C   0  0  0  0  0  0  0  0  0  0  0  0
  107.2780   20.3096   15.2499 C   0  0  0  0  0  0  0  0  0  0  0  0
  106.1409   19.7621   14.4427 N   0  0  0  0  0  0  0  0  0  0  0  0
  104.4179   17.9134   16.8468 O   0  0  0  0  0  0  0  0  0  0  0  0
  109.0409   19.8801   18.1825 C   0  0  0  0  0  0  0  0  0  0  0  0
  106.0369   19.9344   13.1837 C   0  0  1  0  0  0  0  0  0  0  0  0
  105.1901   18.7610   14.9869 C   0  0  0  0  0  0  0  0  0  0  0  0
  104.9513   19.0764   12.7113 N   0  0  0  0  0  0  0  0  0  0  0  0
  104.5916   18.2584   13.7717 C   0  0  2  0  0  0  0  0  0  0  0  0
  106.6776   20.7804   12.3019 N   0  0  0  0  0  0  0  0  0  0  0  0
  103.6826   17.2545   13.9274 O   0  0  0  0  0  0  0  0  0  0  0  0
  1  2  1  0
  1  3  1  0
  4  2  1  6
  4  5  1  0
  5  6  1  0
  7  3  1  6
  4  7  1  0
  7  8  1  0
  6  9  1  0
  8  9  1  1
  8 10  1  0
 10 11  1  0
 11 12  1  0
 10 13  1  0
 11 14  1  1
 14 15  1  0
 13 16  2  0
  3 17  1  0
 12 17  1  0
 15 18  1  0
 13 19  1  0
 15 19  1  0
 18 20  1  0
 19 21  1  0
 20 21  1  0
 18 22  1  1
 21 23  1  1
M  END
$$$$
115
     RDKit          3D

 23 27  0  0  0  0  0  0  0  0999 V2000
  109.3736   19.7959   20.5107 C   0  0  0  0  0  0  0  0  0  0  0  0
  108.6827   19.2455   21.3427 C   0  0  0  0  0  0  0  0  0  0  0  0
  108.8334   19.5856   19.1364 N   0  0  0  0  0  0  0  0  0  0  0  0
  107.2273   18.9861   20.7869 C   0  0  2  0  0  0  0  0  0  0  0  0
  106.1144   18.4782   21.3004 N   0  0  0  0  0  0  0  0  0  0  0  0
  105.1237   18.2174   20.5596 C   0  0  0  0  0  0  0  0  0  0  0  0
  107.3343   19.1891   19.4015 C   0  0  2  0  0  0  0  0  0  0  0  0
  106.3502   18.8344   18.5377 C   0  0  1  0  0  0  0  0  0  0  0  0
  105.1990   18.3997   19.1554 N   0  0  0  0  0  0  0  0  0  0  0  0
  106.3656   19.0030   17.1569 N   0  0  0  0  0  0  0  0  0  0  0  0
  107.4311   19.5126   16.4701 C   0  0  2  0  0  0  0  0  0  0  0  0
  108.5714   19.7090   16.9012 O   0  0  0  0  0  0  0  0  0  0  0  0
  105.1945   18.6349   16.4252 C   0  0  0  0  0  0  0  0  0  0  0  0
  107.2780   20.3096   15.2499 C   0  0  0  0  0  0  0  0  0  0  0  0
  106.1409   19.7621   14.4427 N   0  0  0  0  0  0  0  0  0  0  0  0
  105.0925   19.0962   15.1335 C   0  0  1  0  0  0  0  0  0  0  0  0
  109.2284   19.8495   18.0917 C   0  0  0  0  0  0  0  0  0  0  0  0
  106.4520   19.4910   13.1411 C   0  0  1  0  0  0  0  0  0  0  0  0
  104.3606   17.9979   14.2891 C   0  0  1  0  0  0  0  0  0  0  0  0
  105.6872   18.6159   12.4071 N   0  0  0  0  0  0  0  0  0  0  0  0
  103.3192   17.4178   14.8786 C   0  0  0  0  0  0  0  0  0  0  0  0
  104.7487   17.9726   13.0153 N   0  0  0  0  0  0  0  0  0  0  0  0
  107.4137   20.4573   12.5015 C   0  0  0  0  0  0  0  0  0  0  0  0
  1  2  1  0
  1  3  1  0
  4  2  1  6
  4  5  1  0
  5  6  1  0
  7  3  1  6
  4  7  1  0
  7  8  1  0
  6  9  1  0
  8  9  1  1
  8 10  1  0
 10 11  1  0
 11 12  1  0
 10 13  1  0
 11 14  1  1
 14 15  1  0
 16 13  1  1
 15 16  1  0
  3 17  1  0
 12 17  1  0
 15 18  1  0
 16 19  1  0
 18 20  1  0
 19 21  1  6
 19 22  1  0
 20 22  1  0
 18 23  1  6
M  END
$$$$
116
     RDKit          3D

 23 25  0  0  0  0  0  0  0  0999 V2000
  109.9463   19.0478   20.8751 N   0  0  0  0  0  0  0  0  0  0  0  0
  109.6102   19.0502   19.5803 N   0  0  0  0  0  0  0  0  0  0  0  0
  108.2036   19.0450   19.3916 C   0  0  0  0  0  0  0  0  0  0  0  0
  108.7813   19.1577   21.6491 C   0  0  0  0  0  0  0  0  0  0  0  0
  107.5581   19.0473   20.6870 C   0  0  0  0  0  0  0  0  0  0  0  0
  107.5274   19.0014   18.0663 C   0  0  1  0  0  0  0  0  0  0  0  0
  106.1870   18.8511   18.0051 C   0  0  0  0  0  0  0  0  0  0  0  0
  105.5212   18.7615   16.7980 N   0  0  0  0  0  0  0  0  0  0  0  0
  106.1358   18.8997   15.5897 C   0  0  1  0  0  0  0  0  0  0  0  0
  104.1868   18.1348   16.9678 C   0  0  0  0  0  0  0  0  0  0  0  0
  105.4872   18.7464   14.4029 N   0  0  0  0  0  0  0  0  0  0  0  0
  106.0605   18.9714   13.1601 C   0  0  0  0  0  0  0  0  0  0  0  0
  106.0655   20.2378   12.7647 N   0  0  0  0  0  0  0  0  0  0  0  0
  104.4947   17.6090   14.2424 C   0  0  0  0  0  0  0  0  0  0  0  0
  105.4868   21.3331   13.3255 C   0  0  0  0  0  0  0  0  0  0  0  0
  103.4735   17.8923   15.4864 C   0  0  0  0  0  0  0  0  0  0  0  0
  107.2336   19.6508   15.6184 C   0  0  0  0  0  0  0  0  0  0  0  0
  104.5418   16.5418   13.8143 O   0  0  0  0  0  0  0  0  0  0  0  0
  103.6530   17.9895   18.0625 O   0  0  0  0  0  0  0  0  0  0  0  0
  105.6996   22.5972   12.6027 C   0  0  0  0  0  0  0  0  0  0  0  0
  108.0897   19.6668   16.8994 C   0  0  0  0  0  0  0  0  0  0  0  0
  106.9182   18.2158   12.5004 O   0  0  0  0  0  0  0  0  0  0  0  0
  104.7825   21.2656   14.3113 O   0  0  0  0  0  0  0  0  0  0  0  0
  1  2  1  0
  2  3  1  0
  1  4  1  0
  3  5  1  0
  4  5  1  0
  6  3  1  1
  6  7  1  0
  7  8  1  0
  8  9  1  0
  8 10  1  0
  9 11  1  0
 11 12  1  0
 12 13  1  0
 11 14  1  0
 13 15  1  0
 10 16  1  0
 14 16  1  0
  9 17  1  6
 14 18  2  0
 10 19  2  0
 15 20  1  0
  6 21  1  0
 17 21  1  0
 12 22  2  0
 15 23  2  0
M  END
$$$$
12
     RDKit          3D

 17 19  0  0  0  0  0  0  0  0999 V2000
  109.9463   19.0478   20.8751 N   0  0  0  0  0  0  0  0  0  0  0  0
  109.6102   19.0502   19.5803 N   0  0  0  0  0  0  0  0  0  0  0  0
  108.2036   19.0450   19.3916 C   0  0  0  0  0  0  0  0  0  0  0  0
  108.7813   19.1577   21.6491 C   0  0  0  0  0  0  0  0  0  0  0  0
  107.5581   19.0473   20.6870 C   0  0  2  0  0  0  0  0  0  0  0  0
  107.5274   19.0014   18.0663 C   0  0  0  0  0  0  0  0  0  0  0  0
  106.1870   18.8511   18.0051 C   0  0  0  0  0  0  0  0  0  0  0  0
  105.5212   18.7615   16.7980 N   0  0  0  0  0  0  0  0  0  0  0  0
  106.1358   18.8997   15.5897 C   0  0  0  0  0  0  0  0  0  0  0  0
  104.1868   18.1348   16.9678 C   0  0  0  0  0  0  0  0  0  0  0  0
  105.3724   18.7391   19.2027 C   0  0  0  0  0  0  0  0  0  0  0  0
  106.0539   18.8771   20.4976 C   0  0  0  0  0  0  0  0  0  0  0  0
  103.5004   18.1625   15.5636 C   0  0  0  0  0  0  0  0  0  0  0  0
  106.7365   20.1102   15.3574 O   0  0  0  0  0  0  0  0  0  0  0  0
  104.3805   17.9202   14.4246 C   0  0  0  0  0  0  0  0  0  0  0  0
  105.5964   18.5532   14.3069 C   0  0  2  0  0  0  0  0  0  0  0  0
  106.3284   18.5719   13.0194 C   0  0  0  0  0  0  0  0  0  0  0  0
  1  2  1  0
  2  3  1  0
  1  4  1  0
  3  5  1  0
  5  4  1  1
  3  6  1  0
  6  7  1  0
  7  8  1  0
  8  9  1  0
  8 10  1  0
  7 11  1  0
  5 12  1  0
 11 12  1  0
 10 13  1  0
  9 14  2  0
 13 15  1  0
  9 16  1  0
 15 16  1  0
 16 17  1  1
M  END
$$$$
13
     RDKit          3D

 17 19  0  0  0  0  0  0  0  0999 V2000
  109.7649   18.8557   20.3476 N   0  0  0  0  0  0  0  0  0  0  0  0
  109.1677   19.3679   19.4711 C   0  0  1  0  0  0  0  0  0  0  0  0
  109.7682   20.0713   18.4246 N   0  0  0  0  0  0  0  0  0  0  0  0
  107.7050   19.0735   19.1983 C   0  0  2  0  0  0  0  0  0  0  0  0
  108.7868   20.3651   17.3723 C   0  0  1  0  0  0  0  0  0  0  0  0
  107.0069   18.3286   20.0492 N   0  0  0  0  0  0  0  0  0  0  0  0
  108.9955   20.7100   16.1854 N   0  0  0  0  0  0  0  0  0  0  0  0
  107.5544   19.5004   17.8800 C   0  0  2  0  0  0  0  0  0  0  0  0
  105.6997   18.1669   19.4284 C   0  0  0  0  0  0  0  0  0  0  0  0
  106.3891   19.1713   17.3304 C   0  0  0  0  0  0  0  0  0  0  0  0
  105.3937   18.5494   18.1295 C   0  0  1  0  0  0  0  0  0  0  0  0
  104.1184   18.1024   17.5585 C   0  0  0  0  0  0  0  0  0  0  0  0
  103.4517   17.1528   18.1533 C   0  0  0  0  0  0  0  0  0  0  0  0
  102.2619   16.6220   17.4383 C   0  0  0  0  0  0  0  0  0  0  0  0
  102.1412   17.3236   16.1414 C   0  0  0  0  0  0  0  0  0  0  0  0
  103.9077   18.6402   16.2641 C   0  0  0  0  0  0  0  0  0  0  0  0
  102.8443   18.1543   15.5293 C   0  0  0  0  0  0  0  0  0  0  0  0
  2  1  1  6
  2  3  1  0
  2  4  1  0
  3  5  1  0
  4  6  1  6
  5  7  1  6
  4  8  1  0
  5  8  1  0
  6  9  1  0
  8 10  1  1
  9 11  1  0
 10 11  1  0
 11 12  1  6
 12 13  1  0
 13 14  1  0
 14 15  1  0
 12 16  1  0
 15 17  1  0
 16 17  1  0
M  END
$$$$
14
     RDKit          3D

 17 19  0  0  0  0  0  0  0  0999 V2000
  109.1284   19.4067   21.2976 N   0  0  0  0  0  0  0  0  0  0  0  0
  108.8468   19.5565   20.0263 C   0  0  1  0  0  0  0  0  0  0  0  0
  109.8436   19.7928   19.0744 N   0  0  0  0  0  0  0  0  0  0  0  0
  107.5157   18.9866   19.6516 C   0  0  2  0  0  0  0  0  0  0  0  0
  108.1049   19.0759   22.1709 C   0  0  0  0  0  0  0  0  0  0  0  0
  108.3441   19.1656   23.5202 O   0  0  0  0  0  0  0  0  0  0  0  0
  107.2897   18.9805   18.1706 C   0  0  2  0  0  0  0  0  0  0  0  0
  106.5804   18.5932   20.5403 C   0  0  0  0  0  0  0  0  0  0  0  0
  106.8958   18.6563   21.7921 C   0  0  0  0  0  0  0  0  0  0  0  0
  108.1097   19.5899   17.3037 N   0  0  0  0  0  0  0  0  0  0  0  0
  109.3397   19.9649   17.7473 C   0  0  0  0  0  0  0  0  0  0  0  0
  106.0260   18.6632   17.7129 N   0  0  0  0  0  0  0  0  0  0  0  0
  105.0650   17.9724   18.4848 C   0  0  2  0  0  0  0  0  0  0  0  0
  103.9996   17.5156   17.9824 C   0  0  0  0  0  0  0  0  0  0  0  0
  105.3803   18.1064   19.9285 N   0  0  0  0  0  0  0  0  0  0  0  0
  107.2575   19.8151   24.1837 C   0  0  0  0  0  0  0  0  0  0  0  0
  103.2059   16.6707   18.7630 O   0  0  0  0  0  0  0  0  0  0  0  0
  2  1  1  1
  2  3  1  0
  2  4  1  0
  1  5  1  0
  5  6  1  0
  4  7  1  0
  4  8  1  1
  5  9  1  0
  8  9  1  0
  7 10  1  1
  3 11  1  0
 10 11  1  0
  7 12  1  0
 12 13  1  0
 13 14  1  1
  8 15  1  0
 13 15  1  0
  6 16  1  0
 14 17  1  0
M  END
$$$$
15
     RDKit          3D

 17 20  0  0  0  0  0  0  0  0999 V2000
  109.8013   19.3697   20.6067 N   0  0  0  0  0  0  0  0  0  0  0  0
  109.3022   19.2633   19.4179 C   0  0  0  0  0  0  0  0  0  0  0  0
  108.8295   19.3031   21.5823 N   0  0  0  0  0  0  0  0  0  0  0  0
  107.9065   19.0849   19.3758 C   0  0  1  0  0  0  0  0  0  0  0  0
  107.0270   18.7934   18.3585 C   0  0  0  0  0  0  0  0  0  0  0  0
  107.3494   19.0351   20.7349 C   0  0  1  0  0  0  0  0  0  0  0  0
  105.8772   18.6049   18.5774 C   0  0  1  0  0  0  0  0  0  0  0  0
  104.8713   18.3358   17.4686 N   0  0  0  0  0  0  0  0  0  0  0  0
  105.0590   18.3938   16.3561 C   0  0  1  0  0  0  0  0  0  0  0  0
  105.1298   18.4977   19.8288 N   0  0  0  0  0  0  0  0  0  0  0  0
  106.1433   18.7779   21.0344 C   0  0  0  0  0  0  0  0  0  0  0  0
  104.0623   17.9977   15.3646 C   0  0  2  0  0  0  0  0  0  0  0  0
  103.5842   17.6950   17.9041 C   0  0  0  0  0  0  0  0  0  0  0  0
  102.9185   17.5151   16.3773 C   0  0  0  0  0  0  0  0  0  0  0  0
  104.7705   17.3249   14.4413 N   0  0  0  0  0  0  0  0  0  0  0  0
  105.6885   18.1450   13.9386 C   0  0  0  0  0  0  0  0  0  0  0  0
  106.1501   18.9351   15.4646 C   0  0  0  0  0  0  0  0  0  0  0  0
  1  2  1  0
  1  3  1  0
  4  2  1  1
  4  5  1  0
  3  6  1  0
  4  6  1  0
  5  7  1  0
  7  8  1  6
  8  9  1  0
  7 10  1  0
  6 11  1  1
 10 11  1  0
  9 12  1  0
  8 13  1  0
 12 14  1  1
 13 14  1  0
 12 15  1  0
 15 16  1  0
  9 17  1  6
 16 17  1  0
M  END
$$$$
16
     RDKit          3D

 18 18  0  0  0  0  0  0  0  0999 V2000
  105.1332   17.7669   13.0273 O   0  0  0  0  0  0  0  0  0  0  0  0
  104.6573   17.8659   14.1194 C   0  0  0  0  0  0  0  0  0  0  0  0
  103.6414   17.2032   14.4768 N   0  0  0  0  0  0  0  0  0  0  0  0
  105.1169   19.0235   14.9761 N   0  0  0  0  0  0  0  0  0  0  0  0
  104.5644   19.1357   16.2073 C   0  0  0  0  0  0  0  0  0  0  0  0
  106.1683   20.0605   14.6559 C   0  0  0  0  0  0  0  0  0  0  0  0
  105.8882   20.8400   13.6871 C   0  0  0  0  0  0  0  0  0  0  0  0
  104.8252   17.8893   17.0280 C   0  0  1  0  0  0  0  0  0  0  0  0
  107.3457   19.8349   15.3429 C   0  0  0  0  0  0  0  0  0  0  0  0
  108.3835   20.6841   15.0307 C   0  0  0  0  0  0  0  0  0  0  0  0
  108.2054   21.5253   14.0563 C   0  0  0  0  0  0  0  0  0  0  0  0
  106.9863   21.7290   13.3462 C   0  0  0  0  0  0  0  0  0  0  0  0
  105.3788   18.2017   18.3624 C   0  0  0  0  0  0  0  0  0  0  0  0
  103.5527   17.1578   17.4410 C   0  0  0  0  0  0  0  0  0  0  0  0
  106.8039   18.4097   18.3871 C   0  0  0  0  0  0  0  0  0  0  0  0
  107.3178   19.5368   19.3483 C   0  0  0  0  0  0  0  0  0  0  0  0
  108.5445   19.0609   20.0081 N   0  0  0  0  0  0  0  0  0  0  0  0
  109.3647   20.1155   20.5157 C   0  0  0  0  0  0  0  0  0  0  0  0
  1  2  2  0
  2  3  1  0
  2  4  1  0
  4  5  1  0
  4  6  1  0
  6  7  1  0
  5  8  1  0
  6  9  1  0
  9 10  1  0
 10 11  1  0
  7 12  1  0
 11 12  1  0
  8 13  1  0
  8 14  1  1
 13 15  1  0
 15 16  1  0
 16 17  1  0
 17 18  1  0
M  END
$$$$
17
     RDKit          3D

 18 20  0  0  0  0  0  0  0  0999 V2000
  109.9463   19.0478   20.8751 O   0  0  0  0  0  0  0  0  0  0  0  0
  108.6781   19.1744   20.7965 C   0  0  0  0  0  0  0  0  0  0  0  0
  107.9383   19.4351   21.7653 C   0  0  0  0  0  0  0  0  0  0  0  0
  107.9672   18.8870   19.4855 N   0  0  0  0  0  0  0  0  0  0  0  0
  108.6722   18.9258   18.2213 C   0  0  0  0  0  0  0  0  0  0  0  0
  106.5951   18.6615   21.6733 C   0  0  0  0  0  0  0  0  0  0  0  0
  106.6839   18.7459   19.4754 C   0  0  1  0  0  0  0  0  0  0  0  0
  105.9174   18.6301   20.5365 N   0  0  0  0  0  0  0  0  0  0  0  0
  108.2295   20.0782   17.4040 C   0  0  0  0  0  0  0  0  0  0  0  0
  106.7877   19.6297   16.8613 C   0  0  2  0  0  0  0  0  0  0  0  0
  106.1336   19.0204   18.0096 C   0  0  0  0  0  0  0  0  0  0  0  0
  104.7159   18.5565   17.7379 C   0  0  0  0  0  0  0  0  0  0  0  0
  106.2981   19.5341   15.7286 C   0  0  0  0  0  0  0  0  0  0  0  0
  104.2416   18.5630   16.5017 C   0  0  0  0  0  0  0  0  0  0  0  0
  105.0077   19.0310   15.5403 C   0  0  0  0  0  0  0  0  0  0  0  0
  104.4226   19.0473   14.1038 C   0  0  0  0  0  0  0  0  0  0  0  0
  103.8769   19.9650   13.6091 N   0  0  0  0  0  0  0  0  0  0  0  0
  104.6987   17.8482   13.3781 O   0  0  0  0  0  0  0  0  0  0  0  0
  1  2  2  0
  2  3  1  0
  2  4  1  0
  4  5  1  0
  3  6  1  0
  4  7  1  0
  6  8  1  0
  7  8  1  1
  5  9  1  0
 10  9  1  6
  7 11  1  0
 10 11  1  0
 11 12  1  0
 10 13  1  0
 12 14  1  0
 13 15  1  0
 14 15  1  0
 15 16  1  0
 16 17  1  0
 16 18  2  0
M  END
$$$$
18
     RDKit          3D

 18 20  0  0  0  0  0  0  0  0999 V2000
  109.9463   19.0478   20.8751 N   0  0  0  0  0  0  0  0  0  0  0  0
  109.6102   19.0502   19.5803 C   0  0  2  0  0  0  0  0  0  0  0  0
  108.8419   19.1241   21.7169 C   0  0  0  0  0  0  0  0  0  0  0  0
  110.3730   19.1604   18.5394 N   0  0  0  0  0  0  0  0  0  0  0  0
  108.0663   19.0296   19.2822 C   0  0  1  0  0  0  0  0  0  0  0  0
  107.7198   18.9496   17.8776 N   0  0  0  0  0  0  0  0  0  0  0  0
  107.0829   18.9017   20.1541 C   0  0  0  0  0  0  0  0  0  0  0  0
  107.4989   18.9493   21.3577 N   0  0  0  0  0  0  0  0  0  0  0  0
  106.0129   18.8287   19.3581 N   0  0  0  0  0  0  0  0  0  0  0  0
  104.7141   18.5612   19.8358 C   0  0  0  0  0  0  0  0  0  0  0  0
  108.2696   19.3417   16.7024 C   0  0  0  0  0  0  0  0  0  0  0  0
  106.3419   18.8237   18.0327 C   0  0  2  0  0  0  0  0  0  0  0  0
  104.1161   17.4896   19.0025 C   0  0  1  0  0  0  0  0  0  0  0  0
  105.3872   18.4431   17.0067 C   0  0  0  0  0  0  0  0  0  0  0  0
  104.1892   17.8283   17.4675 C   0  0  1  0  0  0  0  0  0  0  0  0
  103.7941   16.7445   16.5123 O   0  0  0  0  0  0  0  0  0  0  0  0
  104.8927   16.1864   19.0936 O   0  0  0  0  0  0  0  0  0  0  0  0
  105.6039   18.6355   15.6938 O   0  0  0  0  0  0  0  0  0  0  0  0
  1  2  1  0
  1  3  1  0
  2  4  1  6
  2  5  1  0
  5  6  1  6
  5  7  1  0
  3  8  1  0
  7  8  1  0
  7  9  1  0
  9 10  1  0
  6 11  1  0
 12  6  1  1
  9 12  1  0
 10 13  1  0
 12 14  1  0
 13 15  1  0
 14 15  1  0
 15 16  1  6
 13 17  1  6
 14 18  2  0
M  END
$$$$
19
     RDKit          3D

 18 20  0  0  0  0  0  0  0  0999 V2000
  110.3427   19.0079   20.3967 O   0  0  0  0  0  0  0  0  0  0  0  0
  109.2947   19.3126   20.2521 C   0  0  0  0  0  0  0  0  0  0  0  0
  108.2210   18.6243   20.4873 N   0  0  0  0  0  0  0  0  0  0  0  0
  106.8788   18.9377   19.9389 C   0  0  2  0  0  0  0  0  0  0  0  0
  105.7987   18.2119   20.1985 C   0  0  0  0  0  0  0  0  0  0  0  0
  109.0893   20.1594   18.9317 C   0  0  0  0  0  0  0  0  0  0  0  0
  108.0498   19.4122   18.0668 C   0  0  1  0  0  0  0  0  0  0  0  0
  106.9497   18.7927   18.4949 N   0  0  0  0  0  0  0  0  0  0  0  0
  108.1661   19.7721   16.6448 N   0  0  0  0  0  0  0  0  0  0  0  0
  105.0454   17.8759   19.0218 C   0  0  0  0  0  0  0  0  0  0  0  0
  105.9266   18.2801   17.9278 C   0  0  2  0  0  0  0  0  0  0  0  0
  103.6856   17.2632   18.8535 C   0  0  0  0  0  0  0  0  0  0  0  0
  103.3335   16.9675   17.5646 C   0  0  0  0  0  0  0  0  0  0  0  0
  104.1294   17.4120   16.3897 N   0  0  0  0  0  0  0  0  0  0  0  0
  103.6604   17.3754   15.1164 C   0  0  0  0  0  0  0  0  0  0  0  0
  102.4555   17.3270   14.9941 O   0  0  0  0  0  0  0  0  0  0  0  0
  104.5436   17.8032   14.0701 C   0  0  0  0  0  0  0  0  0  0  0  0
  105.5323   17.8756   16.6202 C   0  0  0  0  0  0  0  0  0  0  0  0
  1  2  2  0
  2  3  1  0
  3  4  1  0
  4  5  1  1
  2  6  1  0
  6  7  1  0
  4  8  1  0
  7  8  1  0
  7  9  1  6
  5 10  1  0
  8 11  1  0
 10 11  1  0
 10 12  1  0
 12 13  1  0
 13 14  1  0
 14 15  1  0
 15 16  2  0
 15 17  1  0
 11 18  1  1
 14 18  1  0
M  END
$$$$
2
     RDKit          3D

 14 15  0  0  0  0  0  0  0  0999 V2000
  110.3281   18.7210   20.3105 O   0  0  0  0  0  0  0  0  0  0  0  0
  109.1667   19.1252   20.6192 C   0  0  0  0  0  0  0  0  0  0  0  0
  108.0605   19.1827   19.6664 C   0  0  1  0  0  0  0  0  0  0  0  0
  108.5330   19.2958   18.3119 N   0  0  0  0  0  0  0  0  0  0  0  0
  106.9102   18.5750   19.4730 C   0  0  1  0  0  0  0  0  0  0  0  0
  108.7599   19.4815   21.8226 O   0  0  0  0  0  0  0  0  0  0  0  0
  106.0135   17.9026   20.3097 C   0  0  0  0  0  0  0  0  0  0  0  0
  104.7649   17.5120   19.7943 N   0  0  0  0  0  0  0  0  0  0  0  0
  106.3898   18.7070   18.1045 C   0  0  0  0  0  0  0  0  0  0  0  0
  104.4827   17.8026   18.6145 C   0  0  2  0  0  0  0  0  0  0  0  0
  103.1255   17.3305   18.1114 C   0  0  0  0  0  0  0  0  0  0  0  0
  107.5286   19.3072   17.4469 C   0  0  2  0  0  0  0  0  0  0  0  0
  105.2413   18.4117   17.6541 N   0  0  0  0  0  0  0  0  0  0  0  0
  107.6107   19.5507   16.0082 C   0  0  0  0  0  0  0  0  0  0  0  0
  1  2  1  0
  3  2  1  1
  3  4  1  0
  3  5  1  0
  2  6  2  0
  5  7  1  1
  7  8  1  0
  5  9  1  0
  8 10  1  0
 10 11  1  6
  4 12  1  0
  9 12  1  0
  9 13  1  0
 10 13  1  0
 12 14  1  6
M  END
$$$$
20
     RDKit          3D

 18 20  0  0  0  0  0  0  0  0999 V2000
  109.3736   19.7959   20.5107 C   0  0  0  0  0  0  0  0  0  0  0  0
  108.6827   19.2455   21.3427 C   0  0  0  0  0  0  0  0  0  0  0  0
  108.8334   19.5856   19.1364 N   0  0  0  0  0  0  0  0  0  0  0  0
  107.2273   18.9861   20.7869 C   0  0  2  0  0  0  0  0  0  0  0  0
  106.1144   18.4782   21.3004 N   0  0  0  0  0  0  0  0  0  0  0  0
  105.1237   18.2174   20.5596 C   0  0  2  0  0  0  0  0  0  0  0  0
  107.3343   19.1891   19.4015 C   0  0  2  0  0  0  0  0  0  0  0  0
  106.3502   18.8344   18.5377 C   0  0  2  0  0  0  0  0  0  0  0  0
  104.0082   17.7973   21.0274 O   0  0  0  0  0  0  0  0  0  0  0  0
  106.3410   19.0444   17.1745 N   0  0  0  0  0  0  0  0  0  0  0  0
  107.4038   19.5309   16.4847 C   0  0  0  0  0  0  0  0  0  0  0  0
  105.1364   18.9556   16.5191 C   0  0  0  0  0  0  0  0  0  0  0  0
  105.1751   18.2717   19.1128 C   0  0  0  0  0  0  0  0  0  0  0  0
  107.0461   19.8685   15.2020 C   0  0  0  0  0  0  0  0  0  0  0  0
  105.6353   19.3628   15.1350 C   0  0  2  0  0  0  0  0  0  0  0  0
  104.6950   19.2825   13.9584 C   0  0  1  0  0  0  0  0  0  0  0  0
  104.3796   17.8201   13.6320 N   0  0  0  0  0  0  0  0  0  0  0  0
  103.5587   20.0057   14.1219 C   0  0  0  0  0  0  0  0  0  0  0  0
  1  2  1  0
  1  3  1  0
  4  2  1  6
  4  5  1  0
  5  6  1  0
  7  3  1  6
  4  7  1  0
  7  8  1  0
  6  9  1  6
  8 10  1  1
 10 11  1  0
 10 12  1  0
  6 13  1  0
  8 13  1  0
 11 14  1  0
 15 12  1  1
 14 15  1  0
 15 16  1  0
 16 17  1  0
 16 18  1  1
M  END
$$$$
21
     RDKit          3D

 18 21  0  0  0  0  0  0  0  0999 V2000
  109.6773   19.2469   21.0007 N   0  0  0  0  0  0  0  0  0  0  0  0
  108.8675   19.4096   20.1662 C   0  0  0  0  0  0  0  0  0  0  0  0
  108.1492   19.5697   18.9636 C   0  0  2  0  0  0  0  0  0  0  0  0
  106.9369   18.8892   18.8669 C   0  0  2  0  0  0  0  0  0  0  0  0
  106.3019   18.8594   17.5815 C   0  0  0  0  0  0  0  0  0  0  0  0
  108.8228   20.2765   17.8279 C   0  0  0  0  0  0  0  0  0  0  0  0
  106.2709   18.3335   19.9459 C   0  0  0  0  0  0  0  0  0  0  0  0
  108.1131   20.1823   16.6011 C   0  0  0  0  0  0  0  0  0  0  0  0
  106.9922   19.4530   16.4713 C   0  0  2  0  0  0  0  0  0  0  0  0
  105.0012   18.2326   17.2840 C   0  0  2  0  0  0  0  0  0  0  0  0
  106.4389   19.4422   15.0844 N   0  0  0  0  0  0  0  0  0  0  0  0
  104.4133   17.5448   18.3947 C   0  0  0  0  0  0  0  0  0  0  0  0
  104.2900   18.1547   16.1076 N   0  0  0  0  0  0  0  0  0  0  0  0
  105.1518   18.6491   14.9806 C   0  0  1  0  0  0  0  0  0  0  0  0
  104.5090   18.4654   13.6515 C   0  0  0  0  0  0  0  0  0  0  0  0
  103.0779   17.6544   15.8002 C   0  0  0  0  0  0  0  0  0  0  0  0
  105.0396   17.6818   19.7125 C   0  0  0  0  0  0  0  0  0  0  0  0
  103.0926   17.6453   14.3002 C   0  0  0  0  0  0  0  0  0  0  0  0
  1  2  3  0
  3  2  1  6
  3  4  1  0
  4  5  1  0
  3  6  1  0
  4  7  1  1
  6  8  1  0
  5  9  1  0
  9  8  1  1
  5 10  1  0
  9 11  1  0
 10 12  1  6
 10 13  1  0
 11 14  1  0
 13 14  1  0
 14 15  1  6
 13 16  1  0
  7 17  1  0
 12 17  1  0
 15 18  1  0
 16 18  1  0
M  END
$$$$
22
     RDKit          3D

 18 20  0  0  0  0  0  0  0  0999 V2000
  109.8013   19.3697   20.6067 N   0  0  0  0  0  0  0  0  0  0  0  0
  108.5969   19.4180   20.5818 C   0  0  1  0  0  0  0  0  0  0  0  0
  108.0014   19.4228   19.2624 C   0  0  1  0  0  0  0  0  0  0  0  0
  108.8009   19.5809   18.0652 C   0  0  0  0  0  0  0  0  0  0  0  0
  108.1776   19.6385   16.7864 C   0  0  0  0  0  0  0  0  0  0  0  0
  107.7219   19.2340   21.5747 N   0  0  0  0  0  0  0  0  0  0  0  0
  106.7633   18.7689   19.1442 C   0  0  2  0  0  0  0  0  0  0  0  0
  106.0998   18.8560   17.8624 C   0  0  2  0  0  0  0  0  0  0  0  0
  104.7472   18.3752   17.7429 C   0  0  0  0  0  0  0  0  0  0  0  0
  106.7451   19.2362   16.7360 C   0  0  2  0  0  0  0  0  0  0  0  0
  106.0685   18.5586   20.3219 N   0  0  0  0  0  0  0  0  0  0  0  0
  106.0333   19.0323   15.5075 N   0  0  0  0  0  0  0  0  0  0  0  0
  104.8267   18.6125   15.4800 C   0  0  0  0  0  0  0  0  0  0  0  0
  106.5245   18.7235   21.4794 C   0  0  0  0  0  0  0  0  0  0  0  0
  104.1375   18.2193   16.5569 C   0  0  0  0  0  0  0  0  0  0  0  0
  104.1221   18.4864   14.1227 C   0  0  0  0  0  0  0  0  0  0  0  0
  103.7136   19.5134   13.5727 O   0  0  0  0  0  0  0  0  0  0  0  0
  103.6159   17.3206   14.0064 O   0  0  0  0  0  0  0  0  0  0  0  0
  2  1  1  6
  2  3  1  0
  3  4  1  6
  4  5  1  0
  2  6  1  0
  3  7  1  0
  7  8  1  0
  8  9  1  6
 10  5  1  6
  8 10  1  0
  7 11  1  1
 10 12  1  0
 12 13  1  0
  6 14  1  0
 11 14  1  0
  9 15  1  0
 13 15  1  0
 13 16  1  0
 16 17  1  0
 16 18  2  0
M  END
$$$$
23
     RDKit          3D

 18 20  0  0  0  0  0  0  0  0999 V2000
  109.8013   19.3697   20.6067 N   0  0  0  0  0  0  0  0  0  0  0  0
  108.5969   19.4180   20.5818 C   0  0  1  0  0  0  0  0  0  0  0  0
  108.0014   19.4228   19.2624 C   0  0  1  0  0  0  0  0  0  0  0  0
  108.8009   19.5809   18.0652 C   0  0  0  0  0  0  0  0  0  0  0  0
  108.1776   19.6385   16.7864 C   0  0  0  0  0  0  0  0  0  0  0  0
  107.7219   19.2340   21.5747 N   0  0  0  0  0  0  0  0  0  0  0  0
  106.4119   18.9407   21.4257 C   0  0  2  0  0  0  0  0  0  0  0  0
  106.6069   19.2117   19.0842 C   0  0  1  0  0  0  0  0  0  0  0  0
  106.7985   19.4037   16.8249 C   0  0  2  0  0  0  0  0  0  0  0  0
  105.6883   18.5974   22.5143 N   0  0  0  0  0  0  0  0  0  0  0  0
  106.1560   18.8449   18.0586 N   0  0  0  0  0  0  0  0  0  0  0  0
  105.8286   18.8947   20.2525 N   0  0  0  0  0  0  0  0  0  0  0  0
  106.1094   19.2305   15.4473 C   0  0  2  0  0  0  0  0  0  0  0  0
  105.4397   18.1287   15.1296 N   0  0  0  0  0  0  0  0  0  0  0  0
  104.8666   18.0858   13.8845 C   0  0  0  0  0  0  0  0  0  0  0  0
  105.2475   19.2261   13.1515 N   0  0  0  0  0  0  0  0  0  0  0  0
  104.1304   16.9742   13.4419 O   0  0  0  0  0  0  0  0  0  0  0  0
  106.0506   19.6970   14.2041 C   0  0  0  0  0  0  0  0  0  0  0  0
  2  1  1  6
  2  3  1  0
  3  4  1  6
  4  5  1  0
  2  6  1  0
  6  7  1  0
  3  8  1  0
  9  5  1  6
  7 10  1  6
  8 11  1  6
  9 11  1  0
  7 12  1  0
  8 12  1  0
  9 13  1  0
 13 14  1  0
 14 15  1  0
 15 16  1  0
 15 17  2  0
 13 18  1  6
 16 18  1  0
M  END
$$$$
24
     RDKit          3D

 19 21  0  0  0  0  0  0  0  0999 V2000
  109.2263   19.0231   21.5268 O   0  0  0  0  0  0  0  0  0  0  0  0
  107.8763   19.2162   21.5435 C   0  0  0  0  0  0  0  0  0  0  0  0
  107.1468   19.3565   22.4913 N   0  0  0  0  0  0  0  0  0  0  0  0
  107.2428   18.8643   20.2377 C   0  0  2  0  0  0  0  0  0  0  0  0
  107.7101   19.5705   23.8058 O   0  0  0  0  0  0  0  0  0  0  0  0
  107.9508   19.0587   18.9722 C   0  0  2  0  0  0  0  0  0  0  0  0
  105.8778   18.6057   20.1762 C   0  0  0  0  0  0  0  0  0  0  0  0
  105.2267   18.3645   18.9774 C   0  0  0  0  0  0  0  0  0  0  0  0
  105.9939   18.5412   17.7560 C   0  0  1  0  0  0  0  0  0  0  0  0
  103.6637   17.9303   19.0096 C   0  0  0  0  0  0  0  0  0  0  0  0
  109.3295   19.5151   18.8705 N   0  0  0  0  0  0  0  0  0  0  0  0
  105.2069   18.3380   16.5257 N   0  0  0  0  0  0  0  0  0  0  0  0
  105.5069   19.0508   15.4451 C   0  0  0  0  0  0  0  0  0  0  0  0
  107.2230   18.9424   17.8110 N   0  0  0  0  0  0  0  0  0  0  0  0
  103.7298   18.3020   16.6763 C   0  0  1  0  0  0  0  0  0  0  0  0
  103.3476   17.9166   15.2877 C   0  0  0  0  0  0  0  0  0  0  0  0
  103.2974   17.4303   17.7288 C   0  0  0  0  0  0  0  0  0  0  0  0
  104.5354   18.3834   14.4348 C   0  0  2  0  0  0  0  0  0  0  0  0
  105.2795   17.2898   13.7021 C   0  0  0  0  0  0  0  0  0  0  0  0
  1  2  2  0
  2  3  1  0
  4  2  1  1
  3  5  1  0
  4  6  1  0
  4  7  1  0
  7  8  1  0
  8  9  1  0
  8 10  1  0
  6 11  1  1
  9 12  1  0
 12 13  1  0
  6 14  1  0
  9 14  1  6
 12 15  1  0
 15 16  1  6
 10 17  1  0
 15 17  1  0
 13 18  1  0
 16 18  1  0
 18 19  1  1
M  END
$$$$
25
     RDKit          3D

 19 22  0  0  0  0  0  0  0  0999 V2000
  109.3736   19.7959   20.5107 C   0  0  0  0  0  0  0  0  0  0  0  0
  108.6827   19.2455   21.3427 N   0  0  0  0  0  0  0  0  0  0  0  0
  108.9171   19.5865   19.1432 N   0  0  0  0  0  0  0  0  0  0  0  0
  107.6907   19.1635   18.9062 C   0  0  1  0  0  0  0  0  0  0  0  0
  107.1882   19.0730   17.6234 N   0  0  0  0  0  0  0  0  0  0  0  0
  105.9572   18.8559   17.3966 C   0  0  2  0  0  0  0  0  0  0  0  0
  105.1552   18.4922   18.5539 C   0  0  2  0  0  0  0  0  0  0  0  0
  105.1305   18.8050   16.1157 N   0  0  0  0  0  0  0  0  0  0  0  0
  103.8620   18.3368   16.4824 C   0  0  0  0  0  0  0  0  0  0  0  0
  105.6012   18.3023   19.7160 N   0  0  0  0  0  0  0  0  0  0  0  0
  106.9088   18.7313   19.9375 C   0  0  2  0  0  0  0  0  0  0  0  0
  107.4025   18.7919   21.2118 C   0  0  0  0  0  0  0  0  0  0  0  0
  105.7026   19.2002   14.8418 C   0  0  0  0  0  0  0  0  0  0  0  0
  105.4593   18.2196   13.8494 C   0  0  0  0  0  0  0  0  0  0  0  0
  103.7091   18.1551   18.0669 C   0  0  0  0  0  0  0  0  0  0  0  0
  106.2932   18.2982   12.7640 C   0  0  0  0  0  0  0  0  0  0  0  0
  106.6671   19.5231   12.4374 C   0  0  0  0  0  0  0  0  0  0  0  0
  106.2720   20.3584   14.6464 C   0  0  0  0  0  0  0  0  0  0  0  0
  106.8281   20.5616   13.4046 C   0  0  0  0  0  0  0  0  0  0  0  0
  1  2  1  0
  1  3  1  0
  4  3  1  6
  4  5  1  0
  6  5  1  6
  6  7  1  0
  6  8  1  0
  8  9  1  0
  7 10  1  0
  4 11  1  0
 10 11  1  0
  2 12  1  0
 11 12  1  1
  8 13  1  0
 13 14  1  0
  7 15  1  6
  9 15  1  0
 14 16  1  0
 16 17  1  0
 13 18  1  0
 17 19  1  0
 18 19  1  0
M  END
$$$$
26
     RDKit          3D

 19 21  0  0  0  0  0  0  0  0999 V2000
  110.3281   18.7210   20.3105 N   0  0  0  0  0  0  0  0  0  0  0  0
  109.0678   19.0667   20.3527 C   0  0  1  0  0  0  0  0  0  0  0  0
  108.1965   18.8265   19.1687 N   0  0  0  0  0  0  0  0  0  0  0  0
  108.3455   19.5822   21.3806 C   0  0  2  0  0  0  0  0  0  0  0  0
  108.9628   19.7343   22.6285 O   0  0  0  0  0  0  0  0  0  0  0  0
  106.8525   19.1415   21.3910 C   0  0  2  0  0  0  0  0  0  0  0  0
  106.2441   18.7987   20.2793 N   0  0  0  0  0  0  0  0  0  0  0  0
  106.2753   19.3901   22.6203 O   0  0  0  0  0  0  0  0  0  0  0  0
  106.8880   18.8143   19.2624 C   0  0  2  0  0  0  0  0  0  0  0  0
  105.2206   18.3931   22.9469 C   0  0  0  0  0  0  0  0  0  0  0  0
  106.2774   18.5276   17.8678 N   0  0  0  0  0  0  0  0  0  0  0  0
  106.4444   19.3853   16.8272 C   0  0  0  0  0  0  0  0  0  0  0  0
  105.5749   19.1786   15.7122 C   0  0  2  0  0  0  0  0  0  0  0  0
  104.9098   17.9945   17.9557 C   0  0  0  0  0  0  0  0  0  0  0  0
  104.5285   18.1772   16.2889 C   0  0  1  0  0  0  0  0  0  0  0  0
  106.0450   18.6070   14.4962 C   0  0  0  0  0  0  0  0  0  0  0  0
  103.5328   17.7350   15.5599 C   0  0  0  0  0  0  0  0  0  0  0  0
  104.8427   18.2198   13.6099 C   0  0  0  0  0  0  0  0  0  0  0  0
  103.9061   17.3066   14.2666 N   0  0  0  0  0  0  0  0  0  0  0  0
  2  1  1  1
  2  3  1  0
  2  4  1  0
  4  5  1  1
  4  6  1  0
  6  7  1  0
  6  8  1  6
  3  9  1  0
  7  9  1  0
  8 10  1  0
  9 11  1  6
 11 12  1  0
 13 12  1  1
 11 14  1  0
 13 15  1  0
 15 14  1  1
 13 16  1  0
 15 17  1  0
 16 18  1  0
 17 19  1  0
 18 19  1  0
M  END
$$$$
27
     RDKit          3D

 19 21  0  0  0  0  0  0  0  0999 V2000
  108.9002   19.2792   21.6719 N   0  0  0  0  0  0  0  0  0  0  0  0
  109.2705   19.1264   20.4637 C   0  0  0  0  0  0  0  0  0  0  0  0
  107.5557   19.0244   21.9191 C   0  0  0  0  0  0  0  0  0  0  0  0
  106.7369   18.7709   20.7399 C   0  0  1  0  0  0  0  0  0  0  0  0
  107.0133   18.9894   23.2543 N   0  0  0  0  0  0  0  0  0  0  0  0
  107.1798   18.7462   19.5194 C   0  0  0  0  0  0  0  0  0  0  0  0
  108.5197   19.0249   19.2984 N   0  0  0  0  0  0  0  0  0  0  0  0
  105.3085   18.4346   21.0500 N   0  0  0  0  0  0  0  0  0  0  0  0
  106.2971   18.4989   18.4209 N   0  0  0  0  0  0  0  0  0  0  0  0
  104.7289   18.1739   19.9288 C   0  0  0  0  0  0  0  0  0  0  0  0
  105.0294   18.3176   18.6827 C   0  0  2  0  0  0  0  0  0  0  0  0
  104.0982   18.0588   17.5191 C   0  0  0  0  0  0  0  0  0  0  0  0
  104.4572   18.4452   16.3223 C   0  0  0  0  0  0  0  0  0  0  0  0
  102.9315   17.4286   17.7854 C   0  0  0  0  0  0  0  0  0  0  0  0
  103.6094   18.1641   15.1665 C   0  0  0  0  0  0  0  0  0  0  0  0
  102.0639   17.1581   16.6588 C   0  0  0  0  0  0  0  0  0  0  0  0
  104.0984   18.5705   13.8784 O   0  0  0  0  0  0  0  0  0  0  0  0
  105.3033   17.9213   13.4456 C   0  0  0  0  0  0  0  0  0  0  0  0
  102.3649   17.5829   15.2968 C   0  0  0  0  0  0  0  0  0  0  0  0
  1  2  1  0
  1  3  1  0
  3  4  1  0
  3  5  1  0
  4  6  1  0
  2  7  1  0
  6  7  1  0
  4  8  1  1
  6  9  1  0
  8 10  1  0
  9 11  1  0
 10 11  1  0
 11 12  1  6
 12 13  1  0
 12 14  1  0
 13 15  1  0
 14 16  1  0
 15 17  1  0
 17 18  1  0
 15 19  1  0
 16 19  1  0
M  END
$$$$
28
     RDKit          3D

 19 22  0  0  0  0  0  0  0  0999 V2000
  109.8013   19.3697   20.6067 N   0  0  0  0  0  0  0  0  0  0  0  0
  109.3022   19.2633   19.4179 C   0  0  0  0  0  0  0  0  0  0  0  0
  108.8295   19.3031   21.5823 N   0  0  0  0  0  0  0  0  0  0  0  0
  107.9065   19.0849   19.3758 C   0  0  1  0  0  0  0  0  0  0  0  0
  107.0270   18.7934   18.3585 C   0  0  0  0  0  0  0  0  0  0  0  0
  107.3494   19.0351   20.7349 C   0  0  1  0  0  0  0  0  0  0  0  0
  105.8772   18.6049   18.5774 C   0  0  1  0  0  0  0  0  0  0  0  0
  104.8713   18.3358   17.4686 N   0  0  0  0  0  0  0  0  0  0  0  0
  105.0590   18.3938   16.3561 C   0  0  1  0  0  0  0  0  0  0  0  0
  105.1298   18.4977   19.8288 N   0  0  0  0  0  0  0  0  0  0  0  0
  106.1433   18.7779   21.0344 C   0  0  0  0  0  0  0  0  0  0  0  0
  104.0623   17.9977   15.3646 C   0  0  2  0  0  0  0  0  0  0  0  0
  103.5842   17.6950   17.9041 C   0  0  0  0  0  0  0  0  0  0  0  0
  102.9185   17.5151   16.3773 C   0  0  0  0  0  0  0  0  0  0  0  0
  104.7705   17.3249   14.4413 N   0  0  0  0  0  0  0  0  0  0  0  0
  105.6885   18.1450   13.9386 C   0  0  1  0  0  0  0  0  0  0  0  0
  106.0496   18.9402   15.2107 N   0  0  0  0  0  0  0  0  0  0  0  0
  107.1603   19.8363   15.4239 C   0  0  0  0  0  0  0  0  0  0  0  0
  106.5222   18.2174   13.0079 N   0  0  0  0  0  0  0  0  0  0  0  0
  1  2  1  0
  1  3  1  0
  4  2  1  1
  4  5  1  0
  3  6  1  0
  4  6  1  0
  5  7  1  0
  7  8  1  6
  9  8  1  1
  7 10  1  0
  6 11  1  1
 10 11  1  0
  9 12  1  0
  8 13  1  0
 12 14  1  1
 13 14  1  0
 12 15  1  0
 15 16  1  0
  9 17  1  0
 16 17  1  0
 17 18  1  0
 16 19  1  1
M  END
$$$$
29
     RDKit          3D

 19 22  0  0  0  0  0  0  0  0999 V2000
  109.3736   19.7959   20.5107 C   0  0  0  0  0  0  0  0  0  0  0  0
  108.7626   19.6935   19.3488 N   0  0  0  0  0  0  0  0  0  0  0  0
  107.6689   19.1153   19.0447 C   0  0  0  0  0  0  0  0  0  0  0  0
  107.1314   19.0454   17.6821 C   0  0  1  0  0  0  0  0  0  0  0  0
  106.0549   18.7270   17.4508 N   0  0  0  0  0  0  0  0  0  0  0  0
  106.8822   18.4880   19.9912 C   0  0  1  0  0  0  0  0  0  0  0  0
  107.2931   18.6277   21.3351 N   0  0  0  0  0  0  0  0  0  0  0  0
  105.1863   18.1557   18.4370 C   0  0  0  0  0  0  0  0  0  0  0  0
  106.6410   18.3092   22.3638 C   0  0  0  0  0  0  0  0  0  0  0  0
  107.9625   19.6076   16.4762 C   0  0  0  0  0  0  0  0  0  0  0  0
  105.6201   18.1086   19.7424 N   0  0  0  0  0  0  0  0  0  0  0  0
  108.5971   19.2351   21.5532 C   0  0  0  0  0  0  0  0  0  0  0  0
  103.7204   17.5488   18.1769 C   0  0  0  0  0  0  0  0  0  0  0  0
  103.6186   17.3353   16.9287 C   0  0  0  0  0  0  0  0  0  0  0  0
  104.1770   18.2684   15.8677 C   0  0  2  0  0  0  0  0  0  0  0  0
  103.9073   18.0513   14.4962 C   0  0  0  0  0  0  0  0  0  0  0  0
  105.6227   18.7018   16.0962 C   0  0  1  0  0  0  0  0  0  0  0  0
  106.7950   19.3863   15.5187 C   0  0  0  0  0  0  0  0  0  0  0  0
  104.7879   17.7882   13.6946 N   0  0  0  0  0  0  0  0  0  0  0  0
  1  2  1  0
  2  3  1  0
  3  4  1  0
  4  5  1  0
  3  6  1  0
  6  7  1  0
  5  8  1  0
  7  9  1  0
  4 10  1  1
  6 11  1  1
  8 11  1  0
  1 12  1  0
  7 12  1  0
  8 13  1  0
 13 14  1  0
 14 15  1  0
 15 16  1  6
  5 17  1  0
 15 17  1  0
 10 18  1  0
 17 18  1  1
 16 19  2  0
M  END
$$$$
3
     RDKit          3D

 15 16  0  0  0  0  0  0  0  0999 V2000
  109.7649   18.8557   20.3476 N   0  0  0  0  0  0  0  0  0  0  0  0
  109.1677   19.3679   19.4711 C   0  0  1  0  0  0  0  0  0  0  0  0
  109.7682   20.0713   18.4246 N   0  0  0  0  0  0  0  0  0  0  0  0
  107.7050   19.0735   19.1983 C   0  0  2  0  0  0  0  0  0  0  0  0
  108.7868   20.3651   17.3723 C   0  0  1  0  0  0  0  0  0  0  0  0
  107.0069   18.3286   20.0492 N   0  0  0  0  0  0  0  0  0  0  0  0
  108.9955   20.7100   16.1854 N   0  0  0  0  0  0  0  0  0  0  0  0
  107.5544   19.5004   17.8800 C   0  0  2  0  0  0  0  0  0  0  0  0
  105.6997   18.1669   19.4284 C   0  0  0  0  0  0  0  0  0  0  0  0
  106.3891   19.1713   17.3304 C   0  0  0  0  0  0  0  0  0  0  0  0
  105.4065   18.5402   18.1302 C   0  0  0  0  0  0  0  0  0  0  0  0
  104.0273   18.2362   17.5815 C   0  0  0  0  0  0  0  0  0  0  0  0
  103.3600   17.3031   18.1918 N   0  0  0  0  0  0  0  0  0  0  0  0
  103.6468   18.7860   16.5294 O   0  0  0  0  0  0  0  0  0  0  0  0
  102.4846   16.4303   17.4035 C   0  0  0  0  0  0  0  0  0  0  0  0
  2  1  1  6
  2  3  1  0
  2  4  1  0
  3  5  1  0
  4  6  1  6
  5  7  1  6
  4  8  1  0
  5  8  1  0
  6  9  1  0
  8 10  1  1
  9 11  1  0
 10 11  1  0
 11 12  1  0
 12 13  1  0
 12 14  2  0
 13 15  1  0
M  END
$$$$
30
     RDKit          3D

 19 21  0  0  0  0  0  0  0  0999 V2000
  109.6773   19.2469   21.0007 N   0  0  0  0  0  0  0  0  0  0  0  0
  108.8675   19.4096   20.1662 C   0  0  0  0  0  0  0  0  0  0  0  0
  108.1492   19.5697   18.9636 C   0  0  2  0  0  0  0  0  0  0  0  0
  106.9369   18.8892   18.8669 C   0  0  0  0  0  0  0  0  0  0  0  0
  106.3019   18.8594   17.5815 C   0  0  2  0  0  0  0  0  0  0  0  0
  108.8228   20.2765   17.8279 C   0  0  0  0  0  0  0  0  0  0  0  0
  106.1530   18.1765   19.9235 C   0  0  0  0  0  0  0  0  0  0  0  0
  106.9216   19.6254   16.5366 C   0  0  2  0  0  0  0  0  0  0  0  0
  105.2151   18.4034   17.6339 N   0  0  0  0  0  0  0  0  0  0  0  0
  106.3947   19.4401   15.1897 C   0  0  0  0  0  0  0  0  0  0  0  0
  108.2095   20.2110   16.5337 C   0  0  0  0  0  0  0  0  0  0  0  0
  104.8797   17.8645   18.9905 C   0  0  0  0  0  0  0  0  0  0  0  0
  104.1310   18.1905   16.6506 C   0  0  0  0  0  0  0  0  0  0  0  0
  103.2036   17.2468   16.8335 C   0  0  0  0  0  0  0  0  0  0  0  0
  104.5139   18.5350   15.2137 C   0  0  0  0  0  0  0  0  0  0  0  0
  107.1010   20.2077   14.2788 O   0  0  0  0  0  0  0  0  0  0  0  0
  105.4754   18.7623   14.7433 N   0  0  0  0  0  0  0  0  0  0  0  0
  103.2512   18.7513   14.5713 O   0  0  0  0  0  0  0  0  0  0  0  0
  105.5477   18.1371   13.3281 C   0  0  0  0  0  0  0  0  0  0  0  0
  1  2  3  0
  3  2  1  6
  3  4  1  0
  5  4  1  1
  3  6  1  0
  4  7  1  0
  5  8  1  0
  5  9  1  0
  8 10  1  0
  6 11  1  0
  8 11  1  6
  7 12  1  0
  9 12  1  0
  9 13  1  0
 13 14  2  0
 13 15  1  0
 10 16  2  0
 10 17  1  0
 15 17  1  0
 15 18  2  0
 17 19  1  0
M  END
$$$$
31
     RDKit          3D

 19 22  0  0  0  0  0  0  0  0999 V2000
  109.6773   19.2469   21.0007 N   0  0  0  0  0  0  0  0  0  0  0  0
  108.8675   19.4096   20.1662 C   0  0  0  0  0  0  0  0  0  0  0  0
  108.1492   19.5697   18.9636 C   0  0  2  0  0  0  0  0  0  0  0  0
  106.9369   18.8892   18.8669 C   0  0  2  0  0  0  0  0  0  0  0  0
  106.3019   18.8594   17.5815 C   0  0  0  0  0  0  0  0  0  0  0  0
  108.8228   20.2765   17.8279 C   0  0  0  0  0  0  0  0  0  0  0  0
  106.2709   18.3335   19.9459 C   0  0  0  0  0  0  0  0  0  0  0  0
  108.1131   20.1823   16.6011 C   0  0  0  0  0  0  0  0  0  0  0  0
  106.9922   19.4530   16.4713 C   0  0  2  0  0  0  0  0  0  0  0  0
  105.0012   18.2326   17.2840 C   0  0  2  0  0  0  0  0  0  0  0  0
  106.4389   19.4422   15.0844 N   0  0  0  0  0  0  0  0  0  0  0  0
  104.4133   17.5448   18.3947 C   0  0  0  0  0  0  0  0  0  0  0  0
  104.2900   18.1547   16.1076 N   0  0  0  0  0  0  0  0  0  0  0  0
  105.1518   18.6491   14.9806 C   0  0  1  0  0  0  0  0  0  0  0  0
  104.5090   18.4654   13.6515 C   0  0  0  0  0  0  0  0  0  0  0  0
  103.0779   17.6544   15.8002 C   0  0  0  0  0  0  0  0  0  0  0  0
  105.0396   17.6818   19.7125 C   0  0  0  0  0  0  0  0  0  0  0  0
  105.3356   18.7727   12.6369 N   0  0  0  0  0  0  0  0  0  0  0  0
  103.2940   17.8786   13.9841 C   0  0  0  0  0  0  0  0  0  0  0  0
  1  2  3  0
  3  2  1  6
  3  4  1  0
  4  5  1  0
  3  6  1  0
  4  7  1  1
  6  8  1  0
  5  9  1  0
  9  8  1  1
  5 10  1  0
  9 11  1  0
 10 12  1  6
 10 13  1  0
 14 11  1  1
 13 14  1  0
 14 15  1  0
 13 16  1  0
  7 17  1  0
 12 17  1  0
 15 18  2  0
 15 19  1  0
 16 19  1  0
M  END
$$$$
32
     RDKit          3D

 19 22  0  0  0  0  0  0  0  0999 V2000
  109.7649   18.8557   20.3476 N   0  0  0  0  0  0  0  0  0  0  0  0
  109.1677   19.3679   19.4711 C   0  0  1  0  0  0  0  0  0  0  0  0
  109.7682   20.0713   18.4246 N   0  0  0  0  0  0  0  0  0  0  0  0
  107.7050   19.0735   19.1983 C   0  0  2  0  0  0  0  0  0  0  0  0
  108.7868   20.3651   17.3723 C   0  0  1  0  0  0  0  0  0  0  0  0
  107.0069   18.3286   20.0492 N   0  0  0  0  0  0  0  0  0  0  0  0
  108.9955   20.7100   16.1854 N   0  0  0  0  0  0  0  0  0  0  0  0
  107.5544   19.5004   17.8800 C   0  0  2  0  0  0  0  0  0  0  0  0
  105.6997   18.1669   19.4284 C   0  0  2  0  0  0  0  0  0  0  0  0
  106.3891   19.1713   17.3304 C   0  0  0  0  0  0  0  0  0  0  0  0
  104.7050   17.4873   20.1593 O   0  0  0  0  0  0  0  0  0  0  0  0
  105.3730   18.3107   18.0660 C   0  0  2  0  0  0  0  0  0  0  0  0
  104.2144   17.8926   17.7502 C   0  0  2  0  0  0  0  0  0  0  0  0
  103.6858   17.2363   18.9888 C   0  0  0  0  0  0  0  0  0  0  0  0
  103.5581   17.7952   16.5364 C   0  0  0  0  0  0  0  0  0  0  0  0
  104.1181   17.1946   15.4881 N   0  0  0  0  0  0  0  0  0  0  0  0
  103.6176   17.3913   14.2001 C   0  0  0  0  0  0  0  0  0  0  0  0
  102.5151   18.2305   16.2187 N   0  0  0  0  0  0  0  0  0  0  0  0
  102.3336   18.0755   14.7448 N   0  0  0  0  0  0  0  0  0  0  0  0
  2  1  1  6
  2  3  1  0
  2  4  1  0
  3  5  1  0
  4  6  1  6
  5  7  1  6
  4  8  1  0
  5  8  1  0
  9  6  1  6
  8 10  1  1
  9 11  1  0
  9 12  1  0
 12 10  1  1
 12 13  1  0
 11 14  1  0
 13 14  1  0
 13 15  1  6
 15 16  1  0
 16 17  1  0
 15 18  2  0
 17 19  2  0
 18 19  1  0
M  END
$$$$
33
     RDKit          3D

 19 22  0  0  0  0  0  0  0  0999 V2000
  109.7649   18.8557   20.3476 N   0  0  0  0  0  0  0  0  0  0  0  0
  109.1677   19.3679   19.4711 C   0  0  1  0  0  0  0  0  0  0  0  0
  109.7682   20.0713   18.4246 N   0  0  0  0  0  0  0  0  0  0  0  0
  107.7050   19.0735   19.1983 C   0  0  2  0  0  0  0  0  0  0  0  0
  108.7868   20.3651   17.3723 C   0  0  1  0  0  0  0  0  0  0  0  0
  107.0069   18.3286   20.0492 N   0  0  0  0  0  0  0  0  0  0  0  0
  108.9955   20.7100   16.1854 N   0  0  0  0  0  0  0  0  0  0  0  0
  107.5544   19.5004   17.8800 C   0  0  2  0  0  0  0  0  0  0  0  0
  105.6997   18.1669   19.4284 C   0  0  2  0  0  0  0  0  0  0  0  0
  106.3891   19.1713   17.3304 C   0  0  0  0  0  0  0  0  0  0  0  0
  104.7050   17.4873   20.1593 O   0  0  0  0  0  0  0  0  0  0  0  0
  105.3730   18.3107   18.0660 C   0  0  2  0  0  0  0  0  0  0  0  0
  104.2144   17.8926   17.7502 C   0  0  2  0  0  0  0  0  0  0  0  0
  103.6858   17.2363   18.9888 C   0  0  0  0  0  0  0  0  0  0  0  0
  103.5581   17.7952   16.5364 C   0  0  0  0  0  0  0  0  0  0  0  0
  104.1181   17.1946   15.4881 N   0  0  0  0  0  0  0  0  0  0  0  0
  103.6176   17.3913   14.2001 C   0  0  0  0  0  0  0  0  0  0  0  0
  102.5151   18.2305   16.2187 N   0  0  0  0  0  0  0  0  0  0  0  0
  102.3336   18.0755   14.7448 C   0  0  0  0  0  0  0  0  0  0  0  0
  2  1  1  6
  2  3  1  0
  2  4  1  0
  3  5  1  0
  4  6  1  6
  5  7  1  6
  4  8  1  0
  5  8  1  0
  9  6  1  6
  8 10  1  1
  9 11  1  0
  9 12  1  0
 12 10  1  1
 12 13  1  0
 11 14  1  0
 13 14  1  0
 13 15  1  6
 15 16  1  0
 16 17  1  0
 15 18  2  0
 17 19  2  0
 18 19  1  0
M  END
$$$$
34
     RDKit          3D

 19 20  0  0  0  0  0  0  0  0999 V2000
  110.2751   18.3457   20.1327 N   0  0  0  0  0  0  0  0  0  0  0  0
  109.5386   19.2265   20.2534 C   0  0  0  0  0  0  0  0  0  0  0  0
  109.8783   20.4450   20.2804 O   0  0  0  0  0  0  0  0  0  0  0  0
  108.0443   18.9023   20.3796 C   0  0  1  0  0  0  0  0  0  0  0  0
  107.4419   18.7474   21.4972 C   0  0  0  0  0  0  0  0  0  0  0  0
  107.1758   19.1336   19.1951 C   0  0  1  0  0  0  0  0  0  0  0  0
  107.6788   19.2427   17.8532 C   0  0  0  0  0  0  0  0  0  0  0  0
  105.8580   18.7719   19.4091 C   0  0  1  0  0  0  0  0  0  0  0  0
  106.0882   18.5247   21.6783 C   0  0  0  0  0  0  0  0  0  0  0  0
  105.2867   18.5079   20.6086 N   0  0  0  0  0  0  0  0  0  0  0  0
  104.9625   18.7488   18.2358 C   0  0  2  0  0  0  0  0  0  0  0  0
  103.5754   18.3670   18.3808 C   0  0  0  0  0  0  0  0  0  0  0  0
  105.4849   18.8920   16.9027 C   0  0  1  0  0  0  0  0  0  0  0  0
  106.8628   19.1962   16.7394 C   0  0  0  0  0  0  0  0  0  0  0  0
  103.2186   17.0728   18.0932 C   0  0  0  0  0  0  0  0  0  0  0  0
  104.6569   18.6513   15.7051 C   0  0  0  0  0  0  0  0  0  0  0  0
  105.0351   17.5764   14.8358 N   0  0  0  0  0  0  0  0  0  0  0  0
  103.6469   19.3946   15.4379 O   0  0  0  0  0  0  0  0  0  0  0  0
  104.5549   17.4121   13.5443 C   0  0  0  0  0  0  0  0  0  0  0  0
  1  2  1  0
  2  3  2  0
  4  2  1  1
  4  5  1  0
  4  6  1  0
  6  7  1  6
  6  8  1  0
  5  9  1  0
  8 10  1  1
  9 10  1  0
  8 11  1  0
 11 12  1  6
 11 13  1  0
  7 14  1  0
 13 14  1  0
 12 15  1  0
 13 16  1  6
 16 17  1  0
 16 18  2  0
 17 19  1  0
M  END
$$$$
35
     RDKit          3D

 19 22  0  0  0  0  0  0  0  0999 V2000
  109.9463   19.0478   20.8751 N   0  0  0  0  0  0  0  0  0  0  0  0
  108.6982   19.1533   20.8466 C   0  0  0  0  0  0  0  0  0  0  0  0
  107.8814   19.1909   21.8431 N   0  0  0  0  0  0  0  0  0  0  0  0
  108.1635   19.2182   19.3830 C   0  0  1  0  0  0  0  0  0  0  0  0
  106.7873   19.1207   19.1465 C   0  0  1  0  0  0  0  0  0  0  0  0
  106.2937   18.9495   17.8335 N   0  0  0  0  0  0  0  0  0  0  0  0
  106.0266   18.6796   20.2156 C   0  0  2  0  0  0  0  0  0  0  0  0
  108.8866   19.5319   18.1382 N   0  0  0  0  0  0  0  0  0  0  0  0
  104.6606   18.3555   19.9357 N   0  0  0  0  0  0  0  0  0  0  0  0
  104.1785   18.4023   18.6668 C   0  0  1  0  0  0  0  0  0  0  0  0
  106.5957   18.8000   21.5800 C   0  0  0  0  0  0  0  0  0  0  0  0
  107.2028   19.2612   16.8154 C   0  0  0  0  0  0  0  0  0  0  0  0
  108.4782   19.6115   17.0303 C   0  0  0  0  0  0  0  0  0  0  0  0
  105.0443   18.6177   17.5162 C   0  0  0  0  0  0  0  0  0  0  0  0
  102.7343   18.0090   18.4376 C   0  0  0  0  0  0  0  0  0  0  0  0
  104.5364   18.5049   16.2825 C   0  0  0  0  0  0  0  0  0  0  0  0
  102.3573   17.8839   17.1602 C   0  0  0  0  0  0  0  0  0  0  0  0
  103.2387   18.0286   16.0666 C   0  0  1  0  0  0  0  0  0  0  0  0
  102.5642   17.7770   14.5491 Cl  0  0  0  0  0  0  0  0  0  0  0  0
  1  2  1  0
  2  3  1  0
  2  4  1  0
  4  5  1  0
  5  6  1  6
  5  7  1  0
  4  8  1  1
  7  9  1  0
  9 10  1  0
  3 11  1  0
  7 11  1  1
  6 12  1  0
  8 13  1  0
 12 13  1  0
  6 14  1  0
 10 14  1  0
 10 15  1  6
 14 16  1  0
 15 17  1  0
 16 18  1  0
 17 18  1  0
 18 19  1  6
M  END
$$$$
36
     RDKit          3D

 19 23  0  0  0  0  0  0  0  0999 V2000
  109.3736   19.7959   20.5107 C   0  0  0  0  0  0  0  0  0  0  0  0
  108.7626   19.6935   19.3488 C   0  0  0  0  0  0  0  0  0  0  0  0
  109.3512   20.0236   18.1138 N   0  0  0  0  0  0  0  0  0  0  0  0
  107.3633   19.2547   19.1291 C   0  0  1  0  0  0  0  0  0  0  0  0
  108.7517   19.2211   21.5066 N   0  0  0  0  0  0  0  0  0  0  0  0
  106.9435   19.1113   17.8314 N   0  0  0  0  0  0  0  0  0  0  0  0
  106.5976   18.7340   20.2098 C   0  0  0  0  0  0  0  0  0  0  0  0
  107.3089   18.8487   21.4972 C   0  0  0  0  0  0  0  0  0  0  0  0
  105.7857   18.7812   17.3549 C   0  0  2  0  0  0  0  0  0  0  0  0
  105.3793   18.9335   16.0313 N   0  0  0  0  0  0  0  0  0  0  0  0
  106.2590   19.5246   15.1351 C   0  0  1  0  0  0  0  0  0  0  0  0
  107.5064   19.8761   15.5565 C   0  0  0  0  0  0  0  0  0  0  0  0
  103.9683   18.5271   15.6328 C   0  0  0  0  0  0  0  0  0  0  0  0
  105.8051   19.5616   13.8174 N   0  0  0  0  0  0  0  0  0  0  0  0
  104.5988   18.8898   13.4699 C   0  0  0  0  0  0  0  0  0  0  0  0
  108.1311   19.7195   17.1289 C   0  0  1  0  0  0  0  0  0  0  0  0
  104.8659   18.4215   18.3709 C   0  0  0  0  0  0  0  0  0  0  0  0
  103.7193   18.4683   14.3504 C   0  0  0  0  0  0  0  0  0  0  0  0
  105.3241   18.2713   19.8415 C   0  0  0  0  0  0  0  0  0  0  0  0
  1  2  1  0
  2  3  1  0
  4  2  1  6
  1  5  1  0
  4  6  1  0
  4  7  1  0
  5  8  1  0
  7  8  1  0
  6  9  1  0
  9 10  1  0
 10 11  1  0
 11 12  1  6
 10 13  1  0
 11 14  1  0
 14 15  1  0
  3 16  1  0
  6 16  1  0
 16 12  1  1
  9 17  1  1
 13 18  1  0
 15 18  1  0
  7 19  1  0
 17 19  1  0
M  END
$$$$
37
     RDKit          3D

 19 22  0  0  0  0  0  0  0  0999 V2000
  110.3427   19.0079   20.3967 O   0  0  0  0  0  0  0  0  0  0  0  0
  109.2947   19.3126   20.2521 C   0  0  0  0  0  0  0  0  0  0  0  0
  108.2210   18.6243   20.4873 N   0  0  0  0  0  0  0  0  0  0  0  0
  106.8788   18.9377   19.9389 C   0  0  2  0  0  0  0  0  0  0  0  0
  105.7987   18.2119   20.1985 C   0  0  0  0  0  0  0  0  0  0  0  0
  109.0893   20.1594   18.9317 C   0  0  0  0  0  0  0  0  0  0  0  0
  108.0498   19.4122   18.0668 C   0  0  1  0  0  0  0  0  0  0  0  0
  106.9497   18.7927   18.4949 N   0  0  0  0  0  0  0  0  0  0  0  0
  108.1661   19.7721   16.6448 N   0  0  0  0  0  0  0  0  0  0  0  0
  105.0454   17.8759   19.0218 C   0  0  0  0  0  0  0  0  0  0  0  0
  105.9266   18.2801   17.9278 C   0  0  0  0  0  0  0  0  0  0  0  0
  103.6856   17.2632   18.8535 C   0  0  0  0  0  0  0  0  0  0  0  0
  103.3335   16.9675   17.5646 C   0  0  0  0  0  0  0  0  0  0  0  0
  104.1294   17.4120   16.3897 N   0  0  0  0  0  0  0  0  0  0  0  0
  103.6604   17.3754   15.1164 C   0  0  0  0  0  0  0  0  0  0  0  0
  102.4555   17.3270   14.9941 O   0  0  0  0  0  0  0  0  0  0  0  0
  104.5054   18.0277   14.1519 C   0  0  0  0  0  0  0  0  0  0  0  0
  105.6033   18.4227   14.5148 O   0  0  0  0  0  0  0  0  0  0  0  0
  105.6308   18.1247   16.5453 C   0  0  1  0  0  0  0  0  0  0  0  0
  1  2  2  0
  2  3  1  0
  3  4  1  0
  4  5  1  1
  2  6  1  0
  6  7  1  0
  4  8  1  0
  7  8  1  0
  7  9  1  6
  5 10  1  0
  8 11  1  0
 10 11  1  0
 10 12  1  0
 12 13  1  0
 13 14  1  0
 14 15  1  0
 15 16  2  0
 15 17  1  0
 17 18  1  0
 11 19  1  0
 14 19  1  0
 19 18  1  6
M  END
$$$$
38
     RDKit          3D

 20 22  0  0  0  0  0  0  0  0999 V2000
  110.3281   18.7210   20.3105 N   0  0  0  0  0  0  0  0  0  0  0  0
  109.0678   19.0667   20.3527 C   0  0  1  0  0  0  0  0  0  0  0  0
  108.1965   18.8265   19.1687 N   0  0  0  0  0  0  0  0  0  0  0  0
  108.3455   19.5822   21.3806 C   0  0  2  0  0  0  0  0  0  0  0  0
  108.9628   19.7343   22.6285 O   0  0  0  0  0  0  0  0  0  0  0  0
  106.8525   19.1415   21.3910 C   0  0  2  0  0  0  0  0  0  0  0  0
  106.2441   18.7987   20.2793 N   0  0  0  0  0  0  0  0  0  0  0  0
  106.2753   19.3901   22.6203 O   0  0  0  0  0  0  0  0  0  0  0  0
  106.8880   18.8143   19.2624 C   0  0  2  0  0  0  0  0  0  0  0  0
  105.2206   18.3931   22.9469 C   0  0  0  0  0  0  0  0  0  0  0  0
  106.2774   18.5276   17.8678 N   0  0  0  0  0  0  0  0  0  0  0  0
  106.4444   19.3853   16.8272 C   0  0  1  0  0  0  0  0  0  0  0  0
  105.0976   17.7323   17.8788 C   0  0  0  0  0  0  0  0  0  0  0  0
  107.6961   19.7739   16.5138 C   0  0  0  0  0  0  0  0  0  0  0  0
  105.6362   18.7732   15.7496 C   0  0  1  0  0  0  0  0  0  0  0  0
  104.6206   17.9160   16.4416 C   0  0  1  0  0  0  0  0  0  0  0  0
  103.5150   17.2346   15.8529 C   0  0  0  0  0  0  0  0  0  0  0  0
  103.3760   17.5359   14.4700 C   0  0  0  0  0  0  0  0  0  0  0  0
  105.2988   19.0338   14.4194 C   0  0  0  0  0  0  0  0  0  0  0  0
  104.2398   18.4138   13.7476 C   0  0  0  0  0  0  0  0  0  0  0  0
  2  1  1  1
  2  3  1  0
  2  4  1  0
  4  5  1  1
  4  6  1  0
  6  7  1  0
  6  8  1  6
  3  9  1  0
  7  9  1  0
  8 10  1  0
  9 11  1  6
 11 12  1  0
 11 13  1  0
 12 14  1  6
 12 15  1  0
 16 13  1  6
 15 16  1  0
 16 17  1  0
 17 18  1  0
 15 19  1  1
 18 20  1  0
 19 20  1  0
M  END
$$$$
39
     RDKit          3D

 20 21  0  0  0  0  0  0  0  0999 V2000
  110.2751   18.3457   20.1327 N   0  0  0  0  0  0  0  0  0  0  0  0
  109.5386   19.2265   20.2534 C   0  0  0  0  0  0  0  0  0  0  0  0
  109.8783   20.4450   20.2804 O   0  0  0  0  0  0  0  0  0  0  0  0
  108.0443   18.9023   20.3796 C   0  0  1  0  0  0  0  0  0  0  0  0
  107.4419   18.7474   21.4972 C   0  0  0  0  0  0  0  0  0  0  0  0
  107.1758   19.1336   19.1951 C   0  0  1  0  0  0  0  0  0  0  0  0
  107.6788   19.2427   17.8532 C   0  0  0  0  0  0  0  0  0  0  0  0
  105.8580   18.7719   19.4091 C   0  0  1  0  0  0  0  0  0  0  0  0
  106.0882   18.5247   21.6783 C   0  0  0  0  0  0  0  0  0  0  0  0
  105.2867   18.5079   20.6086 N   0  0  0  0  0  0  0  0  0  0  0  0
  104.9625   18.7488   18.2358 C   0  0  2  0  0  0  0  0  0  0  0  0
  103.5754   18.3670   18.3808 C   0  0  0  0  0  0  0  0  0  0  0  0
  105.4849   18.8920   16.9027 C   0  0  2  0  0  0  0  0  0  0  0  0
  106.8628   19.1962   16.7394 C   0  0  0  0  0  0  0  0  0  0  0  0
  103.2186   17.0728   18.0932 C   0  0  0  0  0  0  0  0  0  0  0  0
  104.6034   18.8053   15.6010 C   0  0  1  0  0  0  0  0  0  0  0  0
  104.1773   19.7482   15.0383 C   0  0  0  0  0  0  0  0  0  0  0  0
  104.5438   17.3783   15.1141 N   0  0  0  0  0  0  0  0  0  0  0  0
  104.2005   21.1148   15.2942 O   0  0  0  0  0  0  0  0  0  0  0  0
  103.2640   19.4213   13.9311 O   0  0  0  0  0  0  0  0  0  0  0  0
  1  2  1  0
  2  3  2  0
  4  2  1  1
  4  5  1  0
  4  6  1  0
  6  7  1  6
  6  8  1  0
  5  9  1  0
  8 10  1  1
  9 10  1  0
  8 11  1  0
 11 12  1  6
 11 13  1  0
  7 14  1  0
 13 14  1  1
 12 15  1  0
 13 16  1  0
 16 17  1  0
 16 18  1  6
 17 19  1  0
 17 20  2  0
M  END
$$$$
4
     RDKit          3D

 16 18  0  0  0  0  0  0  0  0999 V2000
  109.9463   19.0478   20.8751 N   0  0  0  0  0  0  0  0  0  0  0  0
  109.6102   19.0502   19.5803 N   0  0  0  0  0  0  0  0  0  0  0  0
  108.8036   19.1389   21.6525 C   0  0  0  0  0  0  0  0  0  0  0  0
  107.5384   19.0675   21.0505 C   0  0  0  0  0  0  0  0  0  0  0  0
  108.2440   19.1127   19.2845 C   0  0  2  0  0  0  0  0  0  0  0  0
  107.2537   19.0085   19.9150 C   0  0  0  0  0  0  0  0  0  0  0  0
  105.9473   18.8870   19.2857 C   0  0  0  0  0  0  0  0  0  0  0  0
  108.0110   19.1725   17.6007 C   0  0  0  0  0  0  0  0  0  0  0  0
  105.7761   18.8806   17.9132 N   0  0  0  0  0  0  0  0  0  0  0  0
  106.7910   19.0591   17.1300 C   0  0  0  0  0  0  0  0  0  0  0  0
  104.5148   18.5477   17.3738 C   0  0  0  0  0  0  0  0  0  0  0  0
  103.7006   17.6093   18.1014 C   0  0  0  0  0  0  0  0  0  0  0  0
  104.5208   18.0826   15.9320 C   0  0  0  0  0  0  0  0  0  0  0  0
  102.3897   17.4465   17.6622 C   0  0  0  0  0  0  0  0  0  0  0  0
  103.1663   17.9997   15.3436 C   0  0  0  0  0  0  0  0  0  0  0  0
  102.4364   16.9909   16.2097 C   0  0  0  0  0  0  0  0  0  0  0  0
  1  2  1  0
  1  3  1  0
  3  4  1  0
  2  5  1  0
  4  6  1  0
  5  6  1  0
  6  7  1  0
  5  8  1  6
  7  9  1  0
  8 10  1  0
  9 10  1  0
  9 11  1  0
 11 12  1  0
 11 13  1  0
 12 14  1  0
 13 15  1  0
 14 16  1  0
 15 16  1  0
M  END
$$$$
40
     RDKit          3D

 20 24  0  0  0  0  0  0  0  0999 V2000
  109.3736   19.7959   20.5107 C   0  0  0  0  0  0  0  0  0  0  0  0
  108.6827   19.2455   21.3427 C   0  0  0  0  0  0  0  0  0  0  0  0
  108.8334   19.5856   19.1364 N   0  0  0  0  0  0  0  0  0  0  0  0
  107.2273   18.9861   20.7869 C   0  0  2  0  0  0  0  0  0  0  0  0
  106.1144   18.4782   21.3004 C   0  0  0  0  0  0  0  0  0  0  0  0
  107.5800   18.9879   19.4057 C   0  0  1  0  0  0  0  0  0  0  0  0
  105.1031   18.1698   20.3703 N   0  0  0  0  0  0  0  0  0  0  0  0
  106.5780   18.6834   18.4637 C   0  0  1  0  0  0  0  0  0  0  0  0
  105.3232   18.3133   19.0313 C   0  0  1  0  0  0  0  0  0  0  0  0
  106.7014   18.8675   17.0369 N   0  0  0  0  0  0  0  0  0  0  0  0
  104.3923   17.9919   18.0043 N   0  0  0  0  0  0  0  0  0  0  0  0
  104.6881   18.1038   16.7361 C   0  0  0  0  0  0  0  0  0  0  0  0
  107.9351   19.4261   16.5973 C   0  0  0  0  0  0  0  0  0  0  0  0
  107.9610   19.9536   15.3992 C   0  0  0  0  0  0  0  0  0  0  0  0
  105.8132   18.5440   16.2075 C   0  0  0  0  0  0  0  0  0  0  0  0
  105.9405   18.6314   14.7621 C   0  0  0  0  0  0  0  0  0  0  0  0
  103.6395   17.6959   15.6362 C   0  0  0  0  0  0  0  0  0  0  0  0
  107.1521   19.3776   14.4337 N   0  0  0  0  0  0  0  0  0  0  0  0
  103.8440   17.7554   14.3410 C   0  0  0  0  0  0  0  0  0  0  0  0
  105.1056   18.1728   13.8095 C   0  0  0  0  0  0  0  0  0  0  0  0
  1  2  1  0
  1  3  1  0
  4  2  1  1
  4  5  1  0
  6  3  1  6
  4  6  1  0
  5  7  1  0
  6  8  1  0
  9  7  1  1
  8  9  1  0
  8 10  1  6
  9 11  1  0
 11 12  1  0
 10 13  1  0
 13 14  1  0
 10 15  1  0
 12 15  1  0
 15 16  1  0
 12 17  1  0
 14 18  1  0
 16 18  1  0
 17 19  1  0
 16 20  1  0
 19 20  1  0
M  END
$$$$
41
     RDKit          3D

 20 22  0  0  0  0  0  0  0  0999 V2000
  110.2751   18.3457   20.1327 N   0  0  0  0  0  0  0  0  0  0  0  0
  109.5386   19.2265   20.2534 C   0  0  0  0  0  0  0  0  0  0  0  0
  109.8783   20.4450   20.2804 O   0  0  0  0  0  0  0  0  0  0  0  0
  108.0443   18.9023   20.3796 C   0  0  1  0  0  0  0  0  0  0  0  0
  107.4419   18.7474   21.4972 C   0  0  0  0  0  0  0  0  0  0  0  0
  107.1758   19.1336   19.1951 C   0  0  1  0  0  0  0  0  0  0  0  0
  107.6788   19.2427   17.8532 C   0  0  0  0  0  0  0  0  0  0  0  0
  105.8580   18.7719   19.4091 C   0  0  1  0  0  0  0  0  0  0  0  0
  106.0882   18.5247   21.6783 C   0  0  0  0  0  0  0  0  0  0  0  0
  105.2867   18.5079   20.6086 N   0  0  0  0  0  0  0  0  0  0  0  0
  104.9625   18.7488   18.2358 C   0  0  2  0  0  0  0  0  0  0  0  0
  103.5754   18.3670   18.3808 C   0  0  0  0  0  0  0  0  0  0  0  0
  105.4849   18.8920   16.9027 C   0  0  2  0  0  0  0  0  0  0  0  0
  106.8628   19.1962   16.7394 C   0  0  0  0  0  0  0  0  0  0  0  0
  103.2186   17.0728   18.0932 C   0  0  0  0  0  0  0  0  0  0  0  0
  104.6034   18.8053   15.6010 C   0  0  1  0  0  0  0  0  0  0  0  0
  104.1773   19.7482   15.0383 C   0  0  0  0  0  0  0  0  0  0  0  0
  104.5438   17.3783   15.1141 N   0  0  0  0  0  0  0  0  0  0  0  0
  103.3938   19.3408   13.8550 C   0  0  0  0  0  0  0  0  0  0  0  0
  103.7528   17.6752   13.8747 C   0  0  0  0  0  0  0  0  0  0  0  0
  1  2  1  0
  2  3  2  0
  4  2  1  1
  4  5  1  0
  4  6  1  0
  6  7  1  6
  6  8  1  0
  5  9  1  0
  8 10  1  1
  9 10  1  0
  8 11  1  0
 11 12  1  6
 11 13  1  0
  7 14  1  0
 13 14  1  1
 12 15  1  0
 13 16  1  0
 16 17  1  6
 16 18  1  0
 17 19  1  0
 18 20  1  0
 19 20  1  0
M  END
$$$$
42
     RDKit          3D

 20 22  0  0  0  0  0  0  0  0999 V2000
  109.9463   19.0478   20.8751 N   0  0  0  0  0  0  0  0  0  0  0  0
  109.6102   19.0502   19.5803 N   0  0  0  0  0  0  0  0  0  0  0  0
  108.2036   19.0450   19.3916 C   0  0  0  0  0  0  0  0  0  0  0  0
  108.7813   19.1577   21.6491 C   0  0  0  0  0  0  0  0  0  0  0  0
  107.5581   19.0473   20.6870 C   0  0  2  0  0  0  0  0  0  0  0  0
  107.5274   19.0014   18.0663 C   0  0  0  0  0  0  0  0  0  0  0  0
  106.1870   18.8511   18.0051 C   0  0  0  0  0  0  0  0  0  0  0  0
  105.5212   18.7615   16.7980 N   0  0  0  0  0  0  0  0  0  0  0  0
  106.1358   18.8997   15.5897 C   0  0  0  0  0  0  0  0  0  0  0  0
  104.1868   18.1348   16.9678 C   0  0  0  0  0  0  0  0  0  0  0  0
  105.3724   18.7391   19.2027 C   0  0  0  0  0  0  0  0  0  0  0  0
  106.0539   18.8771   20.4976 C   0  0  0  0  0  0  0  0  0  0  0  0
  103.5004   18.1625   15.5636 C   0  0  0  0  0  0  0  0  0  0  0  0
  106.7365   20.1102   15.3574 O   0  0  0  0  0  0  0  0  0  0  0  0
  104.3805   17.9202   14.4246 C   0  0  0  0  0  0  0  0  0  0  0  0
  105.4341   18.7114   14.2853 N   0  0  0  0  0  0  0  0  0  0  0  0
  105.9807   19.2285   12.9942 C   0  0  0  0  0  0  0  0  0  0  0  0
  105.6745   20.4731   12.5878 C   0  0  0  0  0  0  0  0  0  0  0  0
  106.7258   18.4192   12.2498 O   0  0  0  0  0  0  0  0  0  0  0  0
  104.2370   17.0188   13.5690 O   0  0  0  0  0  0  0  0  0  0  0  0
  1  2  1  0
  2  3  1  0
  1  4  1  0
  3  5  1  0
  5  4  1  1
  3  6  1  0
  6  7  1  0
  7  8  1  0
  8  9  1  0
  8 10  1  0
  7 11  1  0
  5 12  1  0
 11 12  1  0
 10 13  1  0
  9 14  2  0
 13 15  1  0
  9 16  1  0
 15 16  1  0
 16 17  1  0
 17 18  1  0
 17 19  2  0
 15 20  2  0
M  END
$$$$
43
     RDKit          3D

 20 23  0  0  0  0  0  0  0  0999 V2000
  109.3736   19.7959   20.5107 C   0  0  0  0  0  0  0  0  0  0  0  0
  108.7626   19.6935   19.3488 N   0  0  0  0  0  0  0  0  0  0  0  0
  107.6689   19.1153   19.0447 C   0  0  0  0  0  0  0  0  0  0  0  0
  107.1314   19.0454   17.6821 C   0  0  1  0  0  0  0  0  0  0  0  0
  106.0549   18.7270   17.4508 N   0  0  0  0  0  0  0  0  0  0  0  0
  106.8822   18.4880   19.9912 C   0  0  1  0  0  0  0  0  0  0  0  0
  107.2931   18.6277   21.3351 N   0  0  0  0  0  0  0  0  0  0  0  0
  105.1863   18.1557   18.4370 C   0  0  0  0  0  0  0  0  0  0  0  0
  106.6410   18.3092   22.3638 C   0  0  0  0  0  0  0  0  0  0  0  0
  107.9625   19.6076   16.4762 C   0  0  0  0  0  0  0  0  0  0  0  0
  105.6201   18.1086   19.7424 N   0  0  0  0  0  0  0  0  0  0  0  0
  108.5971   19.2351   21.5532 C   0  0  0  0  0  0  0  0  0  0  0  0
  103.7204   17.5488   18.1769 C   0  0  0  0  0  0  0  0  0  0  0  0
  103.6186   17.3353   16.9287 C   0  0  0  0  0  0  0  0  0  0  0  0
  104.1770   18.2684   15.8677 C   0  0  2  0  0  0  0  0  0  0  0  0
  103.9073   18.0513   14.4962 C   0  0  0  0  0  0  0  0  0  0  0  0
  105.6227   18.7018   16.0962 C   0  0  1  0  0  0  0  0  0  0  0  0
  106.7950   19.3863   15.5187 C   0  0  0  0  0  0  0  0  0  0  0  0
  104.7879   17.7882   13.6946 O   0  0  0  0  0  0  0  0  0  0  0  0
  102.6527   18.4905   14.1809 O   0  0  0  0  0  0  0  0  0  0  0  0
  1  2  1  0
  2  3  1  0
  3  4  1  0
  4  5  1  0
  3  6  1  0
  6  7  1  0
  5  8  1  0
  7  9  1  0
  4 10  1  1
  6 11  1  1
  8 11  1  0
  1 12  1  0
  7 12  1  0
  8 13  1  0
 13 14  1  0
 14 15  1  0
 15 16  1  6
  5 17  1  0
 15 17  1  0
 10 18  1  0
 17 18  1  1
 16 19  2  0
 16 20  1  0
M  END
$$$$
44
     RDKit          3D

 20 22  0  0  0  0  0  0  0  0999 V2000
  105.3101   17.7342   13.5023 N   0  0  0  0  0  0  0  0  0  0  0  0
  106.1181   18.6849   13.6192 C   0  0  0  0  0  0  0  0  0  0  0  0
  106.1719   19.4377   14.7543 C   0  0  2  0  0  0  0  0  0  0  0  0
  107.2456   19.3609   12.6428 C   0  0  2  0  0  0  0  0  0  0  0  0
  107.4332   18.7425   11.3966 O   0  0  0  0  0  0  0  0  0  0  0  0
  107.0675   20.4009   15.0909 N   0  0  0  0  0  0  0  0  0  0  0  0
  105.1327   18.9801   15.6923 C   0  0  1  0  0  0  0  0  0  0  0  0
  108.0122   20.3923   13.0311 C   0  0  0  0  0  0  0  0  0  0  0  0
  104.3047   17.4819   14.2203 C   0  0  0  0  0  0  0  0  0  0  0  0
  107.9314   20.8543   14.2707 C   0  0  0  0  0  0  0  0  0  0  0  0
  103.3933   16.6102   13.8969 O   0  0  0  0  0  0  0  0  0  0  0  0
  104.2087   18.1018   15.4546 N   0  0  0  0  0  0  0  0  0  0  0  0
  103.0268   17.8082   16.3862 C   0  0  0  0  0  0  0  0  0  0  0  0
  107.0195   19.5682   10.3797 C   0  0  0  0  0  0  0  0  0  0  0  0
  103.4314   16.9047   17.3987 C   0  0  0  0  0  0  0  0  0  0  0  0
  103.7448   17.6272   18.5895 N   0  0  0  0  0  0  0  0  0  0  0  0
  105.1965   18.0500   18.7053 C   0  0  0  0  0  0  0  0  0  0  0  0
  105.3036   19.5540   17.0680 C   0  0  0  0  0  0  0  0  0  0  0  0
  105.8208   17.4949   19.8651 O   0  0  0  0  0  0  0  0  0  0  0  0
  105.7751   18.9595   18.1197 N   0  0  0  0  0  0  0  0  0  0  0  0
  1  2  1  0
  2  3  1  0
  2  4  1  0
  4  5  1  1
  3  6  1  1
  3  7  1  0
  4  8  1  0
  1  9  1  0
  6 10  1  0
  8 10  1  0
  9 11  2  0
  7 12  1  1
  9 12  1  0
 12 13  1  0
  5 14  1  0
 13 15  1  0
 15 16  1  0
 16 17  1  0
  7 18  1  0
 17 19  2  0
 17 20  1  0
 18 20  2  3
M  END
$$$$
45
     RDKit          3D

 20 22  0  0  0  0  0  0  0  0999 V2000
  110.2751   18.3457   20.1327 N   0  0  0  0  0  0  0  0  0  0  0  0
  109.5386   19.2265   20.2534 C   0  0  0  0  0  0  0  0  0  0  0  0
  109.8783   20.4450   20.2804 O   0  0  0  0  0  0  0  0  0  0  0  0
  108.0443   18.9023   20.3796 C   0  0  1  0  0  0  0  0  0  0  0  0
  107.4419   18.7474   21.4972 C   0  0  0  0  0  0  0  0  0  0  0  0
  107.1758   19.1336   19.1951 C   0  0  1  0  0  0  0  0  0  0  0  0
  107.6788   19.2427   17.8532 C   0  0  0  0  0  0  0  0  0  0  0  0
  105.8580   18.7719   19.4091 C   0  0  1  0  0  0  0  0  0  0  0  0
  106.0882   18.5247   21.6783 C   0  0  0  0  0  0  0  0  0  0  0  0
  105.2867   18.5079   20.6086 N   0  0  0  0  0  0  0  0  0  0  0  0
  104.9625   18.7488   18.2358 C   0  0  2  0  0  0  0  0  0  0  0  0
  103.5754   18.3670   18.3808 C   0  0  0  0  0  0  0  0  0  0  0  0
  105.4849   18.8920   16.9027 C   0  0  1  0  0  0  0  0  0  0  0  0
  106.8628   19.1962   16.7394 C   0  0  0  0  0  0  0  0  0  0  0  0
  103.2186   17.0728   18.0932 C   0  0  0  0  0  0  0  0  0  0  0  0
  104.6569   18.6513   15.7051 C   0  0  0  0  0  0  0  0  0  0  0  0
  105.0351   17.5764   14.8358 N   0  0  0  0  0  0  0  0  0  0  0  0
  104.1122   17.1162   13.9986 N   0  0  0  0  0  0  0  0  0  0  0  0
  103.3066   18.0981   13.8985 N   0  0  0  0  0  0  0  0  0  0  0  0
  103.5523   19.0910   15.0692 N   0  0  0  0  0  0  0  0  0  0  0  0
  1  2  1  0
  2  3  2  0
  4  2  1  1
  4  5  1  0
  4  6  1  0
  6  7  1  6
  6  8  1  0
  5  9  1  0
  8 10  1  1
  9 10  1  0
  8 11  1  0
 11 12  1  6
 11 13  1  0
  7 14  1  0
 13 14  1  0
 12 15  1  0
 13 16  1  6
 16 17  1  0
 17 18  1  0
 18 19  1  0
 16 20  1  0
 19 20  1  0
M  END
$$$$
46
     RDKit          3D

 20 24  0  0  0  0  0  0  0  0999 V2000
  109.3736   19.7959   20.5107 C   0  0  0  0  0  0  0  0  0  0  0  0
  108.6827   19.2455   21.3427 C   0  0  0  0  0  0  0  0  0  0  0  0
  108.8334   19.5856   19.1364 N   0  0  0  0  0  0  0  0  0  0  0  0
  107.2273   18.9861   20.7869 C   0  0  2  0  0  0  0  0  0  0  0  0
  106.1144   18.4782   21.3004 C   0  0  0  0  0  0  0  0  0  0  0  0
  107.5800   18.9879   19.4057 C   0  0  1  0  0  0  0  0  0  0  0  0
  105.1031   18.1698   20.3703 N   0  0  0  0  0  0  0  0  0  0  0  0
  106.5780   18.6834   18.4637 C   0  0  1  0  0  0  0  0  0  0  0  0
  105.3232   18.3133   19.0313 C   0  0  1  0  0  0  0  0  0  0  0  0
  106.7014   18.8675   17.0369 N   0  0  0  0  0  0  0  0  0  0  0  0
  104.3923   17.9919   18.0043 N   0  0  0  0  0  0  0  0  0  0  0  0
  104.6881   18.1038   16.7361 C   0  0  0  0  0  0  0  0  0  0  0  0
  107.9351   19.4261   16.5973 C   0  0  0  0  0  0  0  0  0  0  0  0
  107.9610   19.9536   15.3992 C   0  0  0  0  0  0  0  0  0  0  0  0
  105.8132   18.5440   16.2075 C   0  0  0  0  0  0  0  0  0  0  0  0
  105.9405   18.6314   14.7621 C   0  0  0  0  0  0  0  0  0  0  0  0
  103.6395   17.6959   15.6362 C   0  0  0  0  0  0  0  0  0  0  0  0
  104.0758   17.4882   14.4326 C   0  0  0  0  0  0  0  0  0  0  0  0
  105.1588   18.1435   13.9530 C   0  0  0  0  0  0  0  0  0  0  0  0
  107.2165   19.4084   14.4957 C   0  0  0  0  0  0  0  0  0  0  0  0
  1  2  1  0
  1  3  1  0
  4  2  1  1
  4  5  1  0
  6  3  1  6
  4  6  1  0
  5  7  1  0
  6  8  1  0
  9  7  1  1
  8  9  1  0
  8 10  1  6
  9 11  1  0
 11 12  1  0
 10 13  1  0
 13 14  1  0
 10 15  1  0
 12 15  1  0
 15 16  1  0
 12 17  1  0
 17 18  1  0
 16 19  1  0
 18 19  1  0
 14 20  1  0
 16 20  1  0
M  END
$$$$
47
     RDKit          3D

 20 23  0  0  0  0  0  0  0  0999 V2000
  109.6773   19.2469   21.0007 N   0  0  0  0  0  0  0  0  0  0  0  0
  108.8675   19.4096   20.1662 C   0  0  0  0  0  0  0  0  0  0  0  0
  108.1492   19.5697   18.9636 C   0  0  2  0  0  0  0  0  0  0  0  0
  106.9369   18.8892   18.8669 C   0  0  0  0  0  0  0  0  0  0  0  0
  106.3019   18.8594   17.5815 C   0  0  2  0  0  0  0  0  0  0  0  0
  108.8228   20.2765   17.8279 C   0  0  0  0  0  0  0  0  0  0  0  0
  106.1530   18.1765   19.9235 C   0  0  0  0  0  0  0  0  0  0  0  0
  106.9216   19.6254   16.5366 C   0  0  2  0  0  0  0  0  0  0  0  0
  105.2151   18.4034   17.6339 N   0  0  0  0  0  0  0  0  0  0  0  0
  106.3947   19.4401   15.1897 C   0  0  0  0  0  0  0  0  0  0  0  0
  108.2095   20.2110   16.5337 C   0  0  0  0  0  0  0  0  0  0  0  0
  104.8797   17.8645   18.9905 C   0  0  0  0  0  0  0  0  0  0  0  0
  104.1310   18.1905   16.6506 C   0  0  0  0  0  0  0  0  0  0  0  0
  103.2036   17.2468   16.8335 C   0  0  0  0  0  0  0  0  0  0  0  0
  104.5139   18.5350   15.2137 C   0  0  1  0  0  0  0  0  0  0  0  0
  107.1010   20.2077   14.2788 O   0  0  0  0  0  0  0  0  0  0  0  0
  105.4754   18.7623   14.7433 N   0  0  0  0  0  0  0  0  0  0  0  0
  105.5302   18.4219   13.2742 C   0  0  0  0  0  0  0  0  0  0  0  0
  104.6571   17.2973   13.2518 O   0  0  0  0  0  0  0  0  0  0  0  0
  103.6692   17.7057   14.2941 C   0  0  0  0  0  0  0  0  0  0  0  0
  1  2  3  0
  3  2  1  6
  3  4  1  0
  5  4  1  1
  3  6  1  0
  4  7  1  0
  5  8  1  0
  5  9  1  0
  8 10  1  0
  6 11  1  0
  8 11  1  6
  7 12  1  0
  9 12  1  0
  9 13  1  0
 13 14  2  0
 13 15  1  0
 10 16  2  0
 10 17  1  0
 15 17  1  0
 17 18  1  0
 18 19  1  0
 15 20  1  6
 19 20  1  0
M  END
$$$$
48
     RDKit          3D

 20 22  0  0  0  0  0  0  0  0999 V2000
  109.2263   19.0231   21.5268 O   0  0  0  0  0  0  0  0  0  0  0  0
  107.8763   19.2162   21.5435 C   0  0  0  0  0  0  0  0  0  0  0  0
  107.1468   19.3565   22.4913 N   0  0  0  0  0  0  0  0  0  0  0  0
  107.2428   18.8643   20.2377 C   0  0  2  0  0  0  0  0  0  0  0  0
  107.7101   19.5705   23.8058 O   0  0  0  0  0  0  0  0  0  0  0  0
  107.9508   19.0587   18.9722 C   0  0  2  0  0  0  0  0  0  0  0  0
  105.8778   18.6057   20.1762 C   0  0  2  0  0  0  0  0  0  0  0  0
  105.2156   18.2973   21.3833 O   0  0  0  0  0  0  0  0  0  0  0  0
  109.3413   19.4923   18.8971 N   0  0  0  0  0  0  0  0  0  0  0  0
  105.2421   18.3946   18.9169 C   0  0  0  0  0  0  0  0  0  0  0  0
  107.3065   18.9560   17.7531 N   0  0  0  0  0  0  0  0  0  0  0  0
  106.0653   18.7206   17.7518 C   0  0  1  0  0  0  0  0  0  0  0  0
  105.2601   18.4939   16.4007 C   0  0  0  0  0  0  0  0  0  0  0  0
  105.8616   19.0824   15.3357 N   0  0  0  0  0  0  0  0  0  0  0  0
  104.1167   17.8420   16.2994 N   0  0  0  0  0  0  0  0  0  0  0  0
  105.9171   18.8386   22.5205 C   0  0  0  0  0  0  0  0  0  0  0  0
  107.0081   19.8678   15.1406 C   0  0  0  0  0  0  0  0  0  0  0  0
  105.0516   18.5513   14.2916 C   0  0  0  0  0  0  0  0  0  0  0  0
  103.9316   17.8528   14.9128 C   0  0  0  0  0  0  0  0  0  0  0  0
  105.3875   18.8179   13.0695 O   0  0  0  0  0  0  0  0  0  0  0  0
  1  2  2  0
  2  3  1  0
  4  2  1  1
  3  5  1  0
  4  6  1  0
  4  7  1  0
  7  8  1  0
  6  9  1  1
  7 10  1  6
  6 11  1  0
 10 12  1  0
 11 12  1  0
 12 13  1  6
 13 14  1  0
 13 15  1  0
  3 16  1  0
  8 16  1  0
 14 17  1  0
 14 18  1  0
 15 19  1  0
 18 19  1  0
 18 20  2  0
M  END
$$$$
49
     RDKit          3D

 20 23  0  0  0  0  0  0  0  0999 V2000
  109.1284   19.4067   21.2976 N   0  0  0  0  0  0  0  0  0  0  0  0
  108.8468   19.5565   20.0263 C   0  0  0  0  0  0  0  0  0  0  0  0
  108.0352   19.0833   22.0003 C   0  0  0  0  0  0  0  0  0  0  0  0
  107.7609   19.2151   19.3065 C   0  0  0  0  0  0  0  0  0  0  0  0
  106.7581   18.7330   21.3840 C   0  0  0  0  0  0  0  0  0  0  0  0
  106.6616   18.8340   19.9856 C   0  0  0  0  0  0  0  0  0  0  0  0
  107.8303   19.3236   17.7153 C   0  0  0  0  0  0  0  0  0  0  0  0
  105.5676   18.5532   19.0979 C   0  0  2  0  0  0  0  0  0  0  0  0
  104.3208   18.0741   19.6930 N   0  0  0  0  0  0  0  0  0  0  0  0
  106.6718   19.0175   17.0657 C   0  0  0  0  0  0  0  0  0  0  0  0
  105.5840   18.6196   17.7683 N   0  0  0  0  0  0  0  0  0  0  0  0
  103.4505   17.6770   18.8639 C   0  0  0  0  0  0  0  0  0  0  0  0
  104.2617   18.1493   17.3853 C   0  0  2  0  0  0  0  0  0  0  0  0
  103.7742   17.9442   16.1307 C   0  0  0  0  0  0  0  0  0  0  0  0
  104.6215   18.1739   15.0223 N   0  0  0  0  0  0  0  0  0  0  0  0
  104.7063   19.3233   14.5062 C   0  0  0  0  0  0  0  0  0  0  0  0
  104.4511   17.0581   13.9358 C   0  0  0  0  0  0  0  0  0  0  0  0
  105.8916   19.4000   13.4730 C   0  0  0  0  0  0  0  0  0  0  0  0
  105.5932   17.1257   13.0944 N   0  0  0  0  0  0  0  0  0  0  0  0
  106.1148   18.2679   12.7866 C   0  0  0  0  0  0  0  0  0  0  0  0
  1  2  1  0
  1  3  1  0
  2  4  1  0
  3  5  1  0
  4  6  1  0
  5  6  1  0
  4  7  1  0
  6  8  1  0
  8  9  1  6
  7 10  1  0
  8 11  1  0
 10 11  1  0
  9 12  1  0
 11 13  1  0
 12 13  1  0
 13 14  1  6
 14 15  1  0
 15 16  1  0
 15 17  1  0
 16 18  1  0
 17 19  1  0
 18 20  1  0
 19 20  1  0
M  END
$$$$
5
     RDKit          3D

 16 17  0  0  0  0  0  0  0  0999 V2000
  109.7649   18.8557   20.3476 N   0  0  0  0  0  0  0  0  0  0  0  0
  109.1677   19.3679   19.4711 C   0  0  1  0  0  0  0  0  0  0  0  0
  109.7682   20.0713   18.4246 N   0  0  0  0  0  0  0  0  0  0  0  0
  107.7050   19.0735   19.1983 C   0  0  2  0  0  0  0  0  0  0  0  0
  108.7868   20.3651   17.3723 C   0  0  1  0  0  0  0  0  0  0  0  0
  107.0069   18.3286   20.0492 N   0  0  0  0  0  0  0  0  0  0  0  0
  108.9955   20.7100   16.1854 N   0  0  0  0  0  0  0  0  0  0  0  0
  107.5544   19.5004   17.8800 C   0  0  2  0  0  0  0  0  0  0  0  0
  105.6997   18.1669   19.4284 C   0  0  0  0  0  0  0  0  0  0  0  0
  106.3891   19.1713   17.3304 C   0  0  0  0  0  0  0  0  0  0  0  0
  105.3937   18.5494   18.1295 C   0  0  0  0  0  0  0  0  0  0  0  0
  103.9008   18.2360   17.5478 C   0  0  0  0  0  0  0  0  0  0  0  0
  103.9206   17.3066   16.6359 N   0  0  0  0  0  0  0  0  0  0  0  0
  103.7693   17.3889   15.4026 C   0  0  0  0  0  0  0  0  0  0  0  0
  102.9659   18.2203   14.8952 O   0  0  0  0  0  0  0  0  0  0  0  0
  104.5766   16.6541   14.4711 N   0  0  0  0  0  0  0  0  0  0  0  0
  2  1  1  6
  2  3  1  0
  2  4  1  0
  3  5  1  0
  4  6  1  6
  5  7  1  6
  4  8  1  0
  5  8  1  0
  6  9  1  0
  8 10  1  1
  9 11  1  0
 10 11  1  0
 11 12  1  0
 12 13  1  0
 13 14  1  0
 14 15  2  0
 14 16  1  0
M  END
$$$$
50
     RDKit          3D

 20 22  0  0  0  0  0  0  0  0999 V2000
  110.2751   18.3457   20.1327 N   0  0  0  0  0  0  0  0  0  0  0  0
  109.5386   19.2265   20.2534 C   0  0  0  0  0  0  0  0  0  0  0  0
  109.8783   20.4450   20.2804 O   0  0  0  0  0  0  0  0  0  0  0  0
  108.0443   18.9023   20.3796 C   0  0  1  0  0  0  0  0  0  0  0  0
  107.4419   18.7474   21.4972 C   0  0  0  0  0  0  0  0  0  0  0  0
  107.1758   19.1336   19.1951 C   0  0  1  0  0  0  0  0  0  0  0  0
  107.6788   19.2427   17.8532 C   0  0  0  0  0  0  0  0  0  0  0  0
  105.8580   18.7719   19.4091 C   0  0  1  0  0  0  0  0  0  0  0  0
  106.0882   18.5247   21.6783 C   0  0  0  0  0  0  0  0  0  0  0  0
  105.2867   18.5079   20.6086 N   0  0  0  0  0  0  0  0  0  0  0  0
  104.9625   18.7488   18.2358 C   0  0  2  0  0  0  0  0  0  0  0  0
  103.5754   18.3670   18.3808 C   0  0  0  0  0  0  0  0  0  0  0  0
  105.4849   18.8920   16.9027 C   0  0  2  0  0  0  0  0  0  0  0  0
  106.8628   19.1962   16.7394 C   0  0  0  0  0  0  0  0  0  0  0  0
  103.2186   17.0728   18.0932 C   0  0  0  0  0  0  0  0  0  0  0  0
  104.6034   18.8053   15.6010 C   0  0  0  0  0  0  0  0  0  0  0  0
  102.5587   16.8969   16.8270 C   0  0  0  0  0  0  0  0  0  0  0  0
  104.0320   17.4911   15.3805 N   0  0  0  0  0  0  0  0  0  0  0  0
  103.0369   17.0371   15.6710 N   0  0  0  0  0  0  0  0  0  0  0  0
  104.9828   16.5458   14.5272 C   0  0  0  0  0  0  0  0  0  0  0  0
  1  2  1  0
  2  3  2  0
  4  2  1  1
  4  5  1  0
  4  6  1  0
  6  7  1  6
  6  8  1  0
  5  9  1  0
  8 10  1  1
  9 10  1  0
  8 11  1  0
 11 12  1  6
 11 13  1  0
  7 14  1  0
 13 14  1  1
 12 15  1  0
 13 16  1  0
 15 17  1  0
 16 18  1  0
 17 19  1  0
 18 19  1  0
 18 20  1  0
M  END
$$$$
51
     RDKit          3D

 20 22  0  0  0  0  0  0  0  0999 V2000
  110.2751   18.3457   20.1327 N   0  0  0  0  0  0  0  0  0  0  0  0
  109.5386   19.2265   20.2534 C   0  0  0  0  0  0  0  0  0  0  0  0
  109.8783   20.4450   20.2804 O   0  0  0  0  0  0  0  0  0  0  0  0
  108.0443   18.9023   20.3796 C   0  0  1  0  0  0  0  0  0  0  0  0
  107.4419   18.7474   21.4972 C   0  0  0  0  0  0  0  0  0  0  0  0
  107.1758   19.1336   19.1951 C   0  0  1  0  0  0  0  0  0  0  0  0
  107.6788   19.2427   17.8532 C   0  0  0  0  0  0  0  0  0  0  0  0
  105.8580   18.7719   19.4091 C   0  0  1  0  0  0  0  0  0  0  0  0
  106.0882   18.5247   21.6783 C   0  0  0  0  0  0  0  0  0  0  0  0
  105.2867   18.5079   20.6086 N   0  0  0  0  0  0  0  0  0  0  0  0
  104.9625   18.7488   18.2358 C   0  0  2  0  0  0  0  0  0  0  0  0
  103.5754   18.3670   18.3808 C   0  0  0  0  0  0  0  0  0  0  0  0
  105.4849   18.8920   16.9027 C   0  0  2  0  0  0  0  0  0  0  0  0
  106.8628   19.1962   16.7394 C   0  0  0  0  0  0  0  0  0  0  0  0
  103.2186   17.0728   18.0932 C   0  0  0  0  0  0  0  0  0  0  0  0
  104.6034   18.8053   15.6010 C   0  0  1  0  0  0  0  0  0  0  0  0
  104.1773   19.7482   15.0383 C   0  0  0  0  0  0  0  0  0  0  0  0
  104.5438   17.3783   15.1141 N   0  0  0  0  0  0  0  0  0  0  0  0
  103.7301   17.5656   13.9708 C   0  0  0  0  0  0  0  0  0  0  0  0
  103.3733   19.0202   13.8198 N   0  0  0  0  0  0  0  0  0  0  0  0
  1  2  1  0
  2  3  2  0
  4  2  1  1
  4  5  1  0
  4  6  1  0
  6  7  1  6
  6  8  1  0
  5  9  1  0
  8 10  1  1
  9 10  1  0
  8 11  1  0
 11 12  1  6
 11 13  1  0
  7 14  1  0
 13 14  1  1
 12 15  1  0
 13 16  1  0
 16 17  1  6
 16 18  1  0
 18 19  1  0
 17 20  1  0
 19 20  1  0
M  END
$$$$
52
     RDKit          3D

 20 24  0  0  0  0  0  0  0  0999 V2000
  109.3736   19.7959   20.5107 C   0  0  0  0  0  0  0  0  0  0  0  0
  108.6827   19.2455   21.3427 C   0  0  0  0  0  0  0  0  0  0  0  0
  108.8334   19.5856   19.1364 N   0  0  0  0  0  0  0  0  0  0  0  0
  107.2273   18.9861   20.7869 C   0  0  2  0  0  0  0  0  0  0  0  0
  106.1144   18.4782   21.3004 C   0  0  0  0  0  0  0  0  0  0  0  0
  107.5800   18.9879   19.4057 C   0  0  1  0  0  0  0  0  0  0  0  0
  105.1031   18.1698   20.3703 N   0  0  0  0  0  0  0  0  0  0  0  0
  106.5780   18.6834   18.4637 C   0  0  1  0  0  0  0  0  0  0  0  0
  105.3232   18.3133   19.0313 C   0  0  1  0  0  0  0  0  0  0  0  0
  106.7014   18.8675   17.0369 N   0  0  0  0  0  0  0  0  0  0  0  0
  104.3923   17.9919   18.0043 N   0  0  0  0  0  0  0  0  0  0  0  0
  104.6881   18.1038   16.7361 C   0  0  0  0  0  0  0  0  0  0  0  0
  107.9351   19.4261   16.5973 C   0  0  0  0  0  0  0  0  0  0  0  0
  107.9610   19.9536   15.3992 C   0  0  0  0  0  0  0  0  0  0  0  0
  105.8132   18.5440   16.2075 C   0  0  0  0  0  0  0  0  0  0  0  0
  105.9405   18.6314   14.7621 C   0  0  0  0  0  0  0  0  0  0  0  0
  103.6395   17.6959   15.6362 C   0  0  0  0  0  0  0  0  0  0  0  0
  104.0758   17.4882   14.4326 C   0  0  0  0  0  0  0  0  0  0  0  0
  107.1053   19.3688   14.3746 N   0  0  0  0  0  0  0  0  0  0  0  0
  105.1095   18.1224   13.9528 N   0  0  0  0  0  0  0  0  0  0  0  0
  1  2  1  0
  1  3  1  0
  4  2  1  1
  4  5  1  0
  6  3  1  6
  4  6  1  0
  5  7  1  0
  6  8  1  0
  9  7  1  1
  8  9  1  0
  8 10  1  6
  9 11  1  0
 11 12  1  0
 10 13  1  0
 13 14  1  0
 10 15  1  0
 12 15  1  0
 15 16  1  0
 12 17  1  0
 17 18  1  0
 14 19  1  0
 16 19  1  0
 16 20  1  0
 18 20  1  0
M  END
$$$$
53
     RDKit          3D

 21 23  0  0  0  0  0  0  0  0999 V2000
  110.3281   18.7210   20.3105 N   0  0  0  0  0  0  0  0  0  0  0  0
  109.0678   19.0667   20.3527 C   0  0  1  0  0  0  0  0  0  0  0  0
  108.1965   18.8265   19.1687 N   0  0  0  0  0  0  0  0  0  0  0  0
  108.3455   19.5822   21.3806 C   0  0  2  0  0  0  0  0  0  0  0  0
  108.9628   19.7343   22.6285 O   0  0  0  0  0  0  0  0  0  0  0  0
  106.8525   19.1415   21.3910 C   0  0  2  0  0  0  0  0  0  0  0  0
  106.2441   18.7987   20.2793 N   0  0  0  0  0  0  0  0  0  0  0  0
  106.2753   19.3901   22.6203 O   0  0  0  0  0  0  0  0  0  0  0  0
  106.8880   18.8143   19.2624 C   0  0  2  0  0  0  0  0  0  0  0  0
  105.2206   18.3931   22.9469 C   0  0  0  0  0  0  0  0  0  0  0  0
  106.2774   18.5276   17.8678 N   0  0  0  0  0  0  0  0  0  0  0  0
  106.4444   19.3853   16.8272 C   0  0  1  0  0  0  0  0  0  0  0  0
  105.0976   17.7323   17.8788 C   0  0  0  0  0  0  0  0  0  0  0  0
  107.6961   19.7739   16.5138 C   0  0  0  0  0  0  0  0  0  0  0  0
  105.6362   18.7732   15.7496 C   0  0  1  0  0  0  0  0  0  0  0  0
  104.6206   17.9160   16.4416 C   0  0  0  0  0  0  0  0  0  0  0  0
  105.7314   19.1088   14.3644 C   0  0  2  0  0  0  0  0  0  0  0  0
  106.3745   18.2109   13.4706 N   0  0  0  0  0  0  0  0  0  0  0  0
  106.2719   20.5347   14.0020 C   0  0  0  0  0  0  0  0  0  0  0  0
  105.6862   17.7933   12.3377 O   0  0  0  0  0  0  0  0  0  0  0  0
  107.4275   20.7455   14.8854 C   0  0  0  0  0  0  0  0  0  0  0  0
  2  1  1  1
  2  3  1  0
  2  4  1  0
  4  5  1  1
  4  6  1  0
  6  7  1  0
  6  8  1  6
  3  9  1  0
  7  9  1  0
  8 10  1  0
  9 11  1  6
 11 12  1  0
 11 13  1  0
 12 14  1  6
 12 15  1  0
 13 16  1  0
 15 16  1  1
 15 17  1  0
 17 18  1  6
 17 19  1  0
 18 20  1  0
 14 21  1  0
 19 21  1  0
M  END
$$$$
54
     RDKit          3D

 21 25  0  0  0  0  0  0  0  0999 V2000
  109.3736   19.7959   20.5107 C   0  0  0  0  0  0  0  0  0  0  0  0
  108.6827   19.2455   21.3427 C   0  0  0  0  0  0  0  0  0  0  0  0
  108.8334   19.5856   19.1364 N   0  0  0  0  0  0  0  0  0  0  0  0
  107.2273   18.9861   20.7869 C   0  0  2  0  0  0  0  0  0  0  0  0
  106.1144   18.4782   21.3004 N   0  0  0  0  0  0  0  0  0  0  0  0
  105.1237   18.2174   20.5596 C   0  0  0  0  0  0  0  0  0  0  0  0
  107.3343   19.1891   19.4015 C   0  0  2  0  0  0  0  0  0  0  0  0
  106.3502   18.8344   18.5377 C   0  0  1  0  0  0  0  0  0  0  0  0
  105.1990   18.3997   19.1554 N   0  0  0  0  0  0  0  0  0  0  0  0
  106.3656   19.0030   17.1569 N   0  0  0  0  0  0  0  0  0  0  0  0
  107.4311   19.5126   16.4701 C   0  0  2  0  0  0  0  0  0  0  0  0
  108.5714   19.7090   16.9012 O   0  0  0  0  0  0  0  0  0  0  0  0
  105.1945   18.6349   16.4252 C   0  0  0  0  0  0  0  0  0  0  0  0
  107.2780   20.3096   15.2499 C   0  0  0  0  0  0  0  0  0  0  0  0
  105.1290   18.9355   15.0461 C   0  0  2  0  0  0  0  0  0  0  0  0
  106.1868   19.7588   14.4175 C   0  0  1  0  0  0  0  0  0  0  0  0
  105.9932   20.1583   13.0490 C   0  0  0  0  0  0  0  0  0  0  0  0
  103.9737   18.4865   14.2233 C   0  0  0  0  0  0  0  0  0  0  0  0
  104.9346   19.5648   12.2851 C   0  0  0  0  0  0  0  0  0  0  0  0
  103.9665   18.7953   12.9281 C   0  0  0  0  0  0  0  0  0  0  0  0
  109.0021   19.9718   18.1245 C   0  0  0  0  0  0  0  0  0  0  0  0
  1  2  1  0
  1  3  1  0
  4  2  1  6
  4  5  1  0
  5  6  1  0
  7  3  1  6
  4  7  1  0
  7  8  1  0
  6  9  1  0
  8  9  1  1
  8 10  1  0
 10 11  1  0
 11 12  1  0
 10 13  1  0
 11 14  1  1
 15 13  1  1
 16 14  1  1
 15 16  1  0
 16 17  1  0
 15 18  1  0
 17 19  1  0
 18 20  1  0
 19 20  1  0
  3 21  1  0
 12 21  1  0
M  END
$$$$
55
     RDKit          3D

 21 25  0  0  0  0  0  0  0  0999 V2000
  109.3736   19.7959   20.5107 C   0  0  0  0  0  0  0  0  0  0  0  0
  108.6827   19.2455   21.3427 C   0  0  0  0  0  0  0  0  0  0  0  0
  108.8334   19.5856   19.1364 N   0  0  0  0  0  0  0  0  0  0  0  0
  107.2273   18.9861   20.7869 C   0  0  2  0  0  0  0  0  0  0  0  0
  106.1144   18.4782   21.3004 C   0  0  0  0  0  0  0  0  0  0  0  0
  107.5800   18.9879   19.4057 C   0  0  1  0  0  0  0  0  0  0  0  0
  105.1031   18.1698   20.3703 N   0  0  0  0  0  0  0  0  0  0  0  0
  106.5780   18.6834   18.4637 C   0  0  1  0  0  0  0  0  0  0  0  0
  105.3232   18.3133   19.0313 C   0  0  1  0  0  0  0  0  0  0  0  0
  106.7014   18.8675   17.0369 N   0  0  0  0  0  0  0  0  0  0  0  0
  104.3923   17.9919   18.0043 N   0  0  0  0  0  0  0  0  0  0  0  0
  104.6881   18.1038   16.7361 C   0  0  0  0  0  0  0  0  0  0  0  0
  107.9351   19.4261   16.5973 C   0  0  0  0  0  0  0  0  0  0  0  0
  107.9610   19.9536   15.3992 C   0  0  0  0  0  0  0  0  0  0  0  0
  105.8132   18.5440   16.2075 C   0  0  0  0  0  0  0  0  0  0  0  0
  105.9405   18.6314   14.7621 C   0  0  2  0  0  0  0  0  0  0  0  0
  103.6395   17.6959   15.6362 C   0  0  0  0  0  0  0  0  0  0  0  0
  107.1521   19.3776   14.4337 N   0  0  0  0  0  0  0  0  0  0  0  0
  102.3156   17.2101   16.1653 C   0  0  0  0  0  0  0  0  0  0  0  0
  103.9131   17.8249   14.3041 C   0  0  0  0  0  0  0  0  0  0  0  0
  105.0811   18.3288   13.8699 C   0  0  0  0  0  0  0  0  0  0  0  0
  1  2  1  0
  1  3  1  0
  4  2  1  1
  4  5  1  0
  6  3  1  6
  4  6  1  0
  5  7  1  0
  6  8  1  0
  9  7  1  1
  8  9  1  0
  8 10  1  6
  9 11  1  0
 11 12  1  0
 10 13  1  0
 13 14  1  0
 10 15  1  0
 12 15  1  0
 15 16  1  0
 12 17  1  0
 14 18  1  0
 16 18  1  0
 17 19  1  0
 17 20  1  0
 16 21  1  1
 20 21  1  0
M  END
$$$$
56
     RDKit          3D

 21 24  0  0  0  0  0  0  0  0999 V2000
  109.3736   19.7959   20.5107 C   0  0  0  0  0  0  0  0  0  0  0  0
  108.7626   19.6935   19.3488 N   0  0  0  0  0  0  0  0  0  0  0  0
  108.7098   19.3317   21.5964 N   0  0  0  0  0  0  0  0  0  0  0  0
  107.3404   18.9811   21.1786 C   0  0  1  0  0  0  0  0  0  0  0  0
  109.0728   19.8995   18.0210 C   0  0  0  0  0  0  0  0  0  0  0  0
  107.4545   19.1323   19.7864 C   0  0  0  0  0  0  0  0  0  0  0  0
  108.1303   19.6346   17.0522 C   0  0  2  0  0  0  0  0  0  0  0  0
  106.4675   18.8612   18.7554 C   0  0  0  0  0  0  0  0  0  0  0  0
  106.3583   18.3519   21.7286 N   0  0  0  0  0  0  0  0  0  0  0  0
  108.2950   19.8592   15.7139 N   0  0  0  0  0  0  0  0  0  0  0  0
  107.4525   20.2305   14.8587 C   0  0  1  0  0  0  0  0  0  0  0  0
  106.7828   19.1353   17.4756 C   0  0  0  0  0  0  0  0  0  0  0  0
  105.8897   19.0527   16.3365 N   0  0  0  0  0  0  0  0  0  0  0  0
  107.7742   20.4583   13.5551 C   0  0  0  0  0  0  0  0  0  0  0  0
  106.2056   19.2786   14.9573 C   0  0  1  0  0  0  0  0  0  0  0  0
  106.6105   20.6507   12.6296 C   0  0  0  0  0  0  0  0  0  0  0  0
  105.2506   19.0572   14.0015 C   0  0  1  0  0  0  0  0  0  0  0  0
  105.5969   19.6077   12.7033 C   0  0  0  0  0  0  0  0  0  0  0  0
  104.4123   17.9057   14.2471 C   0  0  0  0  0  0  0  0  0  0  0  0
  104.6976   16.7692   13.7534 O   0  0  0  0  0  0  0  0  0  0  0  0
  103.4947   18.1263   15.0786 N   0  0  0  0  0  0  0  0  0  0  0  0
  1  2  1  0
  1  3  1  0
  3  4  1  0
  2  5  1  0
  2  6  1  0
  4  6  1  0
  7  5  1  1
  6  8  1  0
  4  9  1  6
  7 10  1  0
 10 11  1  0
  7 12  1  0
  8 12  1  0
 12 13  1  0
 11 14  1  6
 11 15  1  0
 15 13  1  1
 14 16  1  0
 15 17  1  0
 16 18  1  0
 17 18  1  0
 17 19  1  6
 19 20  2  0
 19 21  1  0
M  END
$$$$
57
     RDKit          3D

 21 22  0  0  0  0  0  0  0  0999 V2000
  105.1332   17.7669   13.0273 O   0  0  0  0  0  0  0  0  0  0  0  0
  104.6573   17.8659   14.1194 C   0  0  0  0  0  0  0  0  0  0  0  0
  103.6414   17.2032   14.4768 N   0  0  0  0  0  0  0  0  0  0  0  0
  105.1169   19.0235   14.9761 N   0  0  0  0  0  0  0  0  0  0  0  0
  104.5644   19.1357   16.2073 C   0  0  0  0  0  0  0  0  0  0  0  0
  106.1683   20.0605   14.6559 C   0  0  0  0  0  0  0  0  0  0  0  0
  105.8882   20.8400   13.6871 C   0  0  0  0  0  0  0  0  0  0  0  0
  104.8252   17.8893   17.0280 C   0  0  1  0  0  0  0  0  0  0  0  0
  107.3457   19.8349   15.3429 C   0  0  0  0  0  0  0  0  0  0  0  0
  108.3835   20.6841   15.0307 C   0  0  0  0  0  0  0  0  0  0  0  0
  108.2054   21.5253   14.0563 C   0  0  0  0  0  0  0  0  0  0  0  0
  106.9863   21.7290   13.3462 C   0  0  0  0  0  0  0  0  0  0  0  0
  105.3788   18.2017   18.3624 C   0  0  2  0  0  0  0  0  0  0  0  0
  103.5527   17.1578   17.4410 C   0  0  0  0  0  0  0  0  0  0  0  0
  106.8039   18.4097   18.3871 N   0  0  0  0  0  0  0  0  0  0  0  0
  103.6903   16.6040   18.7803 N   0  0  0  0  0  0  0  0  0  0  0  0
  104.8913   17.3266   19.3752 C   0  0  0  0  0  0  0  0  0  0  0  0
  107.4169   19.0048   19.3732 C   0  0  0  0  0  0  0  0  0  0  0  0
  106.8977   19.2558   20.5263 O   0  0  0  0  0  0  0  0  0  0  0  0
  108.9127   19.2218   19.2689 C   0  0  0  0  0  0  0  0  0  0  0  0
  109.7237   19.2820   20.4730 N   0  0  0  0  0  0  0  0  0  0  0  0
  1  2  2  0
  2  3  1  0
  2  4  1  0
  4  5  1  0
  4  6  1  0
  6  7  1  0
  8  5  1  6
  6  9  1  0
  9 10  1  0
 10 11  1  0
  7 12  1  0
 11 12  1  0
  8 13  1  0
  8 14  1  0
 13 15  1  6
 14 16  1  0
 13 17  1  0
 16 17  1  0
 15 18  1  0
 18 19  2  0
 18 20  1  0
 20 21  1  0
M  END
$$$$
58
     RDKit          3D

 21 24  0  0  0  0  0  0  0  0999 V2000
  109.3736   19.7959   20.5107 C   0  0  0  0  0  0  0  0  0  0  0  0
  108.6827   19.2455   21.3427 C   0  0  0  0  0  0  0  0  0  0  0  0
  108.8334   19.5856   19.1364 N   0  0  0  0  0  0  0  0  0  0  0  0
  107.2273   18.9861   20.7869 C   0  0  2  0  0  0  0  0  0  0  0  0
  106.1144   18.4782   21.3004 N   0  0  0  0  0  0  0  0  0  0  0  0
  105.1237   18.2174   20.5596 C   0  0  0  0  0  0  0  0  0  0  0  0
  107.3343   19.1891   19.4015 C   0  0  2  0  0  0  0  0  0  0  0  0
  106.3502   18.8344   18.5377 C   0  0  1  0  0  0  0  0  0  0  0  0
  105.1990   18.3997   19.1554 N   0  0  0  0  0  0  0  0  0  0  0  0
  106.3656   19.0030   17.1569 N   0  0  0  0  0  0  0  0  0  0  0  0
  107.4311   19.5126   16.4701 C   0  0  2  0  0  0  0  0  0  0  0  0
  108.5714   19.7090   16.9012 O   0  0  0  0  0  0  0  0  0  0  0  0
  105.1945   18.6349   16.4252 C   0  0  0  0  0  0  0  0  0  0  0  0
  107.2780   20.3096   15.2499 C   0  0  0  0  0  0  0  0  0  0  0  0
  106.1409   19.7621   14.4427 N   0  0  0  0  0  0  0  0  0  0  0  0
  104.4179   17.9134   16.8468 O   0  0  0  0  0  0  0  0  0  0  0  0
  109.0409   19.8801   18.1825 C   0  0  0  0  0  0  0  0  0  0  0  0
  106.0369   19.9344   13.1837 C   0  0  0  0  0  0  0  0  0  0  0  0
  105.7991   18.9721   12.3169 O   0  0  0  0  0  0  0  0  0  0  0  0
  105.1644   18.7980   14.9693 C   0  0  0  0  0  0  0  0  0  0  0  0
  106.2486   21.2922   12.7248 C   0  0  0  0  0  0  0  0  0  0  0  0
  1  2  1  0
  1  3  1  0
  4  2  1  6
  4  5  1  0
  5  6  1  0
  7  3  1  6
  4  7  1  0
  7  8  1  0
  6  9  1  0
  8  9  1  1
  8 10  1  0
 10 11  1  0
 11 12  1  0
 10 13  1  0
 11 14  1  1
 14 15  1  0
 13 16  2  0
  3 17  1  0
 12 17  1  0
 15 18  1  0
 18 19  2  0
 13 20  1  0
 15 20  1  0
 18 21  1  0
M  END
$$$$
59
     RDKit          3D

 21 22  0  0  0  0  0  0  0  0999 V2000
  102.5147   18.4759   19.0630 O   0  0  0  0  0  0  0  0  0  0  0  0
  103.3288   18.6611   18.3343 C   0  0  1  0  0  0  0  0  0  0  0  0
  104.6362   18.0469   18.6686 C   0  0  1  0  0  0  0  0  0  0  0  0
  104.8263   17.3872   19.6874 O   0  0  0  0  0  0  0  0  0  0  0  0
  103.3310   18.4205   16.8761 N   0  0  0  0  0  0  0  0  0  0  0  0
  105.2808   17.7517   17.4347 N   0  0  0  0  0  0  0  0  0  0  0  0
  106.1049   17.5188   20.2605 C   0  0  0  0  0  0  0  0  0  0  0  0
  106.6085   18.9278   19.9906 C   0  0  0  0  0  0  0  0  0  0  0  0
  104.5618   17.9970   16.4126 C   0  0  2  0  0  0  0  0  0  0  0  0
  104.8396   17.9746   15.0887 C   0  0  2  0  0  0  0  0  0  0  0  0
  105.7999   18.7617   14.4615 N   0  0  0  0  0  0  0  0  0  0  0  0
  103.8788   17.3537   14.0415 C   0  0  0  0  0  0  0  0  0  0  0  0
  104.6059   17.4697   12.9172 O   0  0  0  0  0  0  0  0  0  0  0  0
  105.7377   18.3889   13.0899 C   0  0  0  0  0  0  0  0  0  0  0  0
  108.1420   18.8250   19.9394 N   0  0  0  0  0  0  0  0  0  0  0  0
  106.2294   19.8807   14.9528 C   0  0  0  0  0  0  0  0  0  0  0  0
  108.5844   19.8510   18.7182 C   0  0  0  0  0  0  0  0  0  0  0  0
  107.3234   20.2316   14.5185 O   0  0  0  0  0  0  0  0  0  0  0  0
  108.8313   19.5199   20.9718 C   0  0  0  0  0  0  0  0  0  0  0  0
  108.3991   20.9111   15.2277 C   0  0  0  0  0  0  0  0  0  0  0  0
  109.2985   19.1587   17.6955 N   0  0  0  0  0  0  0  0  0  0  0  0
  2  1  1  1
  2  3  1  0
  3  4  1  1
  2  5  1  0
  3  6  1  0
  4  7  1  0
  7  8  1  0
  9  5  1  1
  6  9  1  0
  9 10  1  0
 10 11  1  0
 10 12  1  6
 12 13  1  0
 11 14  1  0
 13 14  1  0
  8 15  1  0
 11 16  1  0
 15 17  1  0
 16 18  1  0
 15 19  1  0
 18 20  1  0
 17 21  1  0
M  END
$$$$
6
     RDKit          3D

 16 17  0  0  0  0  0  0  0  0999 V2000
  109.9463   19.0478   20.8751 N   0  0  0  0  0  0  0  0  0  0  0  0
  109.6102   19.0502   19.5803 N   0  0  0  0  0  0  0  0  0  0  0  0
  108.8036   19.1389   21.6525 C   0  0  0  0  0  0  0  0  0  0  0  0
  107.5384   19.0675   21.0505 C   0  0  0  0  0  0  0  0  0  0  0  0
  108.2440   19.1127   19.2845 C   0  0  2  0  0  0  0  0  0  0  0  0
  107.2537   19.0085   19.9150 C   0  0  0  0  0  0  0  0  0  0  0  0
  105.9473   18.8870   19.2857 C   0  0  0  0  0  0  0  0  0  0  0  0
  108.0110   19.1725   17.6007 C   0  0  0  0  0  0  0  0  0  0  0  0
  105.7761   18.8806   17.9132 N   0  0  0  0  0  0  0  0  0  0  0  0
  106.7910   19.0591   17.1300 C   0  0  0  0  0  0  0  0  0  0  0  0
  104.5148   18.5477   17.3738 C   0  0  2  0  0  0  0  0  0  0  0  0
  103.7006   17.6093   18.1014 C   0  0  0  0  0  0  0  0  0  0  0  0
  104.5208   18.0826   15.9320 C   0  0  0  0  0  0  0  0  0  0  0  0
  103.2532   18.0112   15.3130 C   0  0  0  0  0  0  0  0  0  0  0  0
  103.9909   16.3577   18.0072 O   0  0  0  0  0  0  0  0  0  0  0  0
  103.3056   17.1001   14.2515 C   0  0  0  0  0  0  0  0  0  0  0  0
  1  2  1  0
  1  3  1  0
  3  4  1  0
  2  5  1  0
  4  6  1  0
  5  6  1  0
  6  7  1  0
  5  8  1  6
  7  9  1  0
  8 10  1  0
  9 10  1  0
  9 11  1  0
 11 12  1  1
 11 13  1  0
 13 14  1  0
 12 15  1  0
 14 16  1  0
M  END
$$$$
60
     RDKit          3D

 21 25  0  0  0  0  0  0  0  0999 V2000
  109.6773   19.2469   21.0007 N   0  0  0  0  0  0  0  0  0  0  0  0
  108.8675   19.4096   20.1662 C   0  0  0  0  0  0  0  0  0  0  0  0
  108.1492   19.5697   18.9636 C   0  0  2  0  0  0  0  0  0  0  0  0
  106.9369   18.8892   18.8669 C   0  0  0  0  0  0  0  0  0  0  0  0
  106.3019   18.8594   17.5815 C   0  0  2  0  0  0  0  0  0  0  0  0
  108.8228   20.2765   17.8279 C   0  0  0  0  0  0  0  0  0  0  0  0
  106.1530   18.1765   19.9235 C   0  0  0  0  0  0  0  0  0  0  0  0
  106.9216   19.6254   16.5366 C   0  0  2  0  0  0  0  0  0  0  0  0
  105.2151   18.4034   17.6339 N   0  0  0  0  0  0  0  0  0  0  0  0
  106.3947   19.4401   15.1897 C   0  0  0  0  0  0  0  0  0  0  0  0
  108.2095   20.2110   16.5337 C   0  0  0  0  0  0  0  0  0  0  0  0
  104.8797   17.8645   18.9905 C   0  0  0  0  0  0  0  0  0  0  0  0
  104.1310   18.1905   16.6506 C   0  0  0  0  0  0  0  0  0  0  0  0
  103.2036   17.2468   16.8335 C   0  0  0  0  0  0  0  0  0  0  0  0
  104.5139   18.5350   15.2137 C   0  0  1  0  0  0  0  0  0  0  0  0
  107.1010   20.2077   14.2788 O   0  0  0  0  0  0  0  0  0  0  0  0
  105.4754   18.7623   14.7433 N   0  0  0  0  0  0  0  0  0  0  0  0
  105.5302   18.4219   13.2742 C   0  0  0  0  0  0  0  0  0  0  0  0
  104.6571   17.2973   13.2518 O   0  0  0  0  0  0  0  0  0  0  0  0
  103.9373   17.4708   14.5135 C   0  0  0  0  0  0  0  0  0  0  0  0
  102.7801   16.8490   15.4083 C   0  0  0  0  0  0  0  0  0  0  0  0
  1  2  3  0
  3  2  1  6
  3  4  1  0
  5  4  1  1
  3  6  1  0
  4  7  1  0
  5  8  1  0
  5  9  1  0
  8 10  1  0
  6 11  1  0
  8 11  1  6
  7 12  1  0
  9 12  1  0
  9 13  1  0
 13 14  2  0
 13 15  1  0
 10 16  2  0
 10 17  1  0
 15 17  1  1
 17 18  1  0
 18 19  1  0
 15 20  1  0
 19 20  1  0
 14 21  1  0
 20 21  2  0
M  END
$$$$
61
     RDKit          3D

 21 24  0  0  0  0  0  0  0  0999 V2000
  108.9002   19.2792   21.6719 N   0  0  0  0  0  0  0  0  0  0  0  0
  109.2705   19.1264   20.4637 C   0  0  0  0  0  0  0  0  0  0  0  0
  107.5557   19.0244   21.9191 C   0  0  0  0  0  0  0  0  0  0  0  0
  106.7369   18.7709   20.7399 C   0  0  2  0  0  0  0  0  0  0  0  0
  107.0133   18.9894   23.2543 N   0  0  0  0  0  0  0  0  0  0  0  0
  110.5995   19.5169   20.2581 O   0  0  0  0  0  0  0  0  0  0  0  0
  105.3390   18.4300   20.9967 N   0  0  0  0  0  0  0  0  0  0  0  0
  107.2089   18.7166   19.4655 C   0  0  1  0  0  0  0  0  0  0  0  0
  108.5930   18.8703   19.3207 N   0  0  0  0  0  0  0  0  0  0  0  0
  106.2486   18.4198   18.5485 C   0  0  1  0  0  0  0  0  0  0  0  0
  105.0199   18.2683   19.4612 C   0  0  1  0  0  0  0  0  0  0  0  0
  103.7443   17.8700   18.9150 C   0  0  0  0  0  0  0  0  0  0  0  0
  106.1540   18.4022   17.1558 C   0  0  2  0  0  0  0  0  0  0  0  0
  107.2240   18.7744   16.3861 O   0  0  0  0  0  0  0  0  0  0  0  0
  106.9986   19.9715   15.6083 C   0  0  0  0  0  0  0  0  0  0  0  0
  106.1152   19.7328   14.5437 C   0  0  0  0  0  0  0  0  0  0  0  0
  103.6789   17.7790   17.4688 C   0  0  0  0  0  0  0  0  0  0  0  0
  104.8962   18.1659   16.5928 C   0  0  1  0  0  0  0  0  0  0  0  0
  104.8078   18.7792   15.2095 C   0  0  2  0  0  0  0  0  0  0  0  0
  103.7775   18.3088   14.2997 C   0  0  0  0  0  0  0  0  0  0  0  0
  104.0672   17.3160   13.4005 O   0  0  0  0  0  0  0  0  0  0  0  0
  1  2  1  0
  1  3  1  0
  3  4  1  0
  3  5  1  0
  2  6  2  0
  4  7  1  1
  4  8  1  0
  2  9  1  0
  8  9  1  1
  8 10  1  0
  7 11  1  0
 10 11  1  1
 11 12  1  1
 10 13  1  0
 13 14  1  6
 14 15  1  0
 15 16  1  0
 12 17  1  0
 13 18  1  0
 18 17  1  1
 16 19  1  0
 18 19  1  0
 19 20  1  6
 20 21  1  0
M  END
$$$$
62
     RDKit          3D

 21 25  0  0  0  0  0  0  0  0999 V2000
  110.3427   19.0079   20.3967 O   0  0  0  0  0  0  0  0  0  0  0  0
  109.2947   19.3126   20.2521 C   0  0  0  0  0  0  0  0  0  0  0  0
  108.2210   18.6243   20.4873 N   0  0  0  0  0  0  0  0  0  0  0  0
  106.8788   18.9377   19.9389 C   0  0  2  0  0  0  0  0  0  0  0  0
  105.7987   18.2119   20.1985 C   0  0  0  0  0  0  0  0  0  0  0  0
  109.0893   20.1594   18.9317 C   0  0  0  0  0  0  0  0  0  0  0  0
  108.0498   19.4122   18.0668 C   0  0  1  0  0  0  0  0  0  0  0  0
  106.9497   18.7927   18.4949 N   0  0  0  0  0  0  0  0  0  0  0  0
  108.1661   19.7721   16.6448 N   0  0  0  0  0  0  0  0  0  0  0  0
  105.0454   17.8759   19.0218 C   0  0  0  0  0  0  0  0  0  0  0  0
  105.9266   18.2801   17.9278 C   0  0  1  0  0  0  0  0  0  0  0  0
  103.6856   17.2632   18.8535 C   0  0  0  0  0  0  0  0  0  0  0  0
  103.3335   16.9675   17.5646 C   0  0  0  0  0  0  0  0  0  0  0  0
  104.1294   17.4120   16.3897 N   0  0  0  0  0  0  0  0  0  0  0  0
  103.6604   17.3754   15.1164 C   0  0  0  0  0  0  0  0  0  0  0  0
  102.4555   17.3270   14.9941 O   0  0  0  0  0  0  0  0  0  0  0  0
  104.5054   18.0277   14.1519 C   0  0  0  0  0  0  0  0  0  0  0  0
  105.6033   18.4227   14.5148 O   0  0  0  0  0  0  0  0  0  0  0  0
  105.2447   18.4934   16.5996 C   0  0  2  0  0  0  0  0  0  0  0  0
  106.1785   18.7343   15.6035 C   0  0  2  0  0  0  0  0  0  0  0  0
  107.3751   19.5062   15.7108 C   0  0  0  0  0  0  0  0  0  0  0  0
  1  2  2  0
  2  3  1  0
  3  4  1  0
  4  5  1  1
  2  6  1  0
  7  6  1  1
  4  8  1  0
  7  8  1  0
  7  9  1  0
  5 10  1  0
  8 11  1  0
 11 10  1  1
 10 12  1  0
 12 13  1  0
 13 14  1  0
 14 15  1  0
 15 16  2  0
 15 17  1  0
 17 18  1  0
 11 19  1  0
 19 14  1  6
 18 20  1  0
 19 20  1  0
  9 21  1  0
 20 21  1  6
M  END
$$$$
63
     RDKit          3D

 21 24  0  0  0  0  0  0  0  0999 V2000
  109.6773   19.2469   21.0007 N   0  0  0  0  0  0  0  0  0  0  0  0
  108.8675   19.4096   20.1662 C   0  0  0  0  0  0  0  0  0  0  0  0
  108.1492   19.5697   18.9636 C   0  0  2  0  0  0  0  0  0  0  0  0
  106.9369   18.8892   18.8669 C   0  0  0  0  0  0  0  0  0  0  0  0
  106.3019   18.8594   17.5815 C   0  0  1  0  0  0  0  0  0  0  0  0
  108.8228   20.2765   17.8279 C   0  0  0  0  0  0  0  0  0  0  0  0
  106.1530   18.1765   19.9235 C   0  0  1  0  0  0  0  0  0  0  0  0
  106.3860   18.3873   21.2529 O   0  0  0  0  0  0  0  0  0  0  0  0
  108.1545   20.2341   16.5873 C   0  0  0  0  0  0  0  0  0  0  0  0
  106.9331   19.4950   16.4451 C   0  0  2  0  0  0  0  0  0  0  0  0
  105.0464   17.4281   19.5107 N   0  0  0  0  0  0  0  0  0  0  0  0
  106.3302   19.5362   14.9746 C   0  0  0  0  0  0  0  0  0  0  0  0
  105.4888   19.0526   22.0083 C   0  0  0  0  0  0  0  0  0  0  0  0
  105.3606   18.4361   14.8115 N   0  0  0  0  0  0  0  0  0  0  0  0
  105.2468   17.9127   17.5926 N   0  0  0  0  0  0  0  0  0  0  0  0
  104.7433   17.8527   16.0722 C   0  0  2  0  0  0  0  0  0  0  0  0
  103.7427   17.0709   15.9203 N   0  0  0  0  0  0  0  0  0  0  0  0
  104.7285   18.1322   13.6443 C   0  0  0  0  0  0  0  0  0  0  0  0
  104.5881   17.3236   18.4050 C   0  0  0  0  0  0  0  0  0  0  0  0
  103.8779   17.1101   13.8109 C   0  0  0  0  0  0  0  0  0  0  0  0
  103.1485   16.9819   14.6920 C   0  0  0  0  0  0  0  0  0  0  0  0
  1  2  3  0
  3  2  1  6
  3  4  1  0
  5  4  1  6
  3  6  1  0
  4  7  1  0
  7  8  1  1
  6  9  1  0
  5 10  1  0
 10  9  1  1
  7 11  1  0
 10 12  1  0
  8 13  1  0
 12 14  1  0
  5 15  1  0
 14 16  1  0
 15 16  1  0
 16 17  1  6
 14 18  1  0
 11 19  1  0
 15 19  1  0
 18 20  1  0
 17 21  1  0
 20 21  1  0
M  END
$$$$
64
     RDKit          3D

 21 25  0  0  0  0  0  0  0  0999 V2000
  109.3736   19.7959   20.5107 C   0  0  0  0  0  0  0  0  0  0  0  0
  108.6827   19.2455   21.3427 C   0  0  0  0  0  0  0  0  0  0  0  0
  108.8334   19.5856   19.1364 N   0  0  0  0  0  0  0  0  0  0  0  0
  107.2273   18.9861   20.7869 C   0  0  2  0  0  0  0  0  0  0  0  0
  106.1144   18.4782   21.3004 C   0  0  0  0  0  0  0  0  0  0  0  0
  107.5800   18.9879   19.4057 C   0  0  1  0  0  0  0  0  0  0  0  0
  105.1031   18.1698   20.3703 N   0  0  0  0  0  0  0  0  0  0  0  0
  106.5780   18.6834   18.4637 C   0  0  1  0  0  0  0  0  0  0  0  0
  105.3232   18.3133   19.0313 C   0  0  1  0  0  0  0  0  0  0  0  0
  106.7014   18.8675   17.0369 N   0  0  0  0  0  0  0  0  0  0  0  0
  104.3923   17.9919   18.0043 N   0  0  0  0  0  0  0  0  0  0  0  0
  104.6881   18.1038   16.7361 C   0  0  0  0  0  0  0  0  0  0  0  0
  107.9351   19.4261   16.5973 C   0  0  0  0  0  0  0  0  0  0  0  0
  107.9610   19.9536   15.3992 C   0  0  0  0  0  0  0  0  0  0  0  0
  105.8132   18.5440   16.2075 C   0  0  0  0  0  0  0  0  0  0  0  0
  105.9405   18.6314   14.7621 C   0  0  2  0  0  0  0  0  0  0  0  0
  103.6395   17.6959   15.6362 C   0  0  0  0  0  0  0  0  0  0  0  0
  107.1521   19.3776   14.4337 N   0  0  0  0  0  0  0  0  0  0  0  0
  107.2406   19.6736   12.9957 C   0  0  0  0  0  0  0  0  0  0  0  0
  103.8870   17.7773   14.3291 C   0  0  0  0  0  0  0  0  0  0  0  0
  105.0235   18.2903   13.8739 C   0  0  0  0  0  0  0  0  0  0  0  0
  1  2  1  0
  1  3  1  0
  4  2  1  1
  4  5  1  0
  6  3  1  6
  4  6  1  0
  5  7  1  0
  6  8  1  0
  9  7  1  1
  8  9  1  0
  8 10  1  6
  9 11  1  0
 11 12  1  0
 10 13  1  0
 13 14  1  0
 10 15  1  0
 12 15  1  0
 15 16  1  0
 12 17  1  0
 14 18  1  0
 16 18  1  0
 18 19  1  0
 17 20  1  0
 16 21  1  1
 20 21  1  0
M  END
$$$$
65
     RDKit          3D

 21 24  0  0  0  0  0  0  0  0999 V2000
  110.0053   18.8959   20.6904 N   0  0  0  0  0  0  0  0  0  0  0  0
  109.5367   19.3102   19.5323 C   0  0  0  0  0  0  0  0  0  0  0  0
  108.0837   19.2454   19.2707 C   0  0  1  0  0  0  0  0  0  0  0  0
  108.8425   18.7867   21.5600 C   0  0  0  0  0  0  0  0  0  0  0  0
  107.6172   19.3622   17.8783 C   0  0  1  0  0  0  0  0  0  0  0  0
  107.2346   18.9035   20.2466 C   0  0  0  0  0  0  0  0  0  0  0  0
  108.4311   19.6865   16.8065 N   0  0  0  0  0  0  0  0  0  0  0  0
  106.3239   19.0267   17.6438 C   0  0  0  0  0  0  0  0  0  0  0  0
  105.9406   19.1059   16.2655 N   0  0  0  0  0  0  0  0  0  0  0  0
  107.6007   18.7572   21.4700 N   0  0  0  0  0  0  0  0  0  0  0  0
  106.9158   19.5049   15.4005 C   0  0  0  0  0  0  0  0  0  0  0  0
  104.5351   18.7132   15.7938 C   0  0  0  0  0  0  0  0  0  0  0  0
  106.3947   19.5755   13.9993 N   0  0  0  0  0  0  0  0  0  0  0  0
  105.2843   18.8911   13.6068 C   0  0  0  0  0  0  0  0  0  0  0  0
  108.1821   19.7854   15.6862 C   0  0  0  0  0  0  0  0  0  0  0  0
  107.1393   20.4364   13.2437 C   0  0  0  0  0  0  0  0  0  0  0  0
  105.5029   18.6111   18.7428 C   0  0  0  0  0  0  0  0  0  0  0  0
  104.3218   18.5431   14.5298 C   0  0  0  0  0  0  0  0  0  0  0  0
  105.9025   18.6363   19.9837 C   0  0  0  0  0  0  0  0  0  0  0  0
  105.1519   19.0356   12.3222 O   0  0  0  0  0  0  0  0  0  0  0  0
  103.0828   17.9551   14.0610 C   0  0  0  0  0  0  0  0  0  0  0  0
  1  2  1  0
  3  2  1  6
  1  4  1  0
  3  5  1  0
  3  6  1  0
  5  7  1  6
  5  8  1  0
  8  9  1  0
  4 10  1  0
  6 10  1  0
  9 11  1  0
  9 12  1  0
 11 13  1  0
 13 14  1  0
  7 15  1  0
 11 15  1  0
 13 16  1  0
  8 17  1  0
 12 18  1  0
 14 18  1  0
  6 19  1  0
 17 19  1  0
 14 20  2  0
 18 21  1  0
M  END
$$$$
66
     RDKit          3D

 21 24  0  0  0  0  0  0  0  0999 V2000
  109.9463   19.0478   20.8751 N   0  0  0  0  0  0  0  0  0  0  0  0
  109.6102   19.0502   19.5803 N   0  0  0  0  0  0  0  0  0  0  0  0
  108.2036   19.0450   19.3916 C   0  0  0  0  0  0  0  0  0  0  0  0
  108.7813   19.1577   21.6491 C   0  0  0  0  0  0  0  0  0  0  0  0
  107.5581   19.0473   20.6870 C   0  0  2  0  0  0  0  0  0  0  0  0
  107.5274   19.0014   18.0663 C   0  0  0  0  0  0  0  0  0  0  0  0
  106.1870   18.8511   18.0051 C   0  0  0  0  0  0  0  0  0  0  0  0
  106.1648   18.8340   20.5262 C   0  0  0  0  0  0  0  0  0  0  0  0
  105.4923   18.7409   19.3259 C   0  0  0  0  0  0  0  0  0  0  0  0
  105.4953   18.8115   16.7901 N   0  0  0  0  0  0  0  0  0  0  0  0
  104.3401   18.1311   16.5872 C   0  0  0  0  0  0  0  0  0  0  0  0
  106.2736   18.7356   15.4970 C   0  0  2  0  0  0  0  0  0  0  0  0
  106.9213   19.9948   15.2603 C   0  0  0  0  0  0  0  0  0  0  0  0
  105.7765   18.0673   14.3881 C   0  0  1  0  0  0  0  0  0  0  0  0
  107.2293   20.3801   14.1971 C   0  0  0  0  0  0  0  0  0  0  0  0
  104.8875   17.0201   14.6762 N   0  0  0  0  0  0  0  0  0  0  0  0
  108.1272   21.5629   13.8813 C   0  0  0  0  0  0  0  0  0  0  0  0
  105.3104   19.1677   13.4110 C   0  0  0  0  0  0  0  0  0  0  0  0
  103.9871   17.2369   15.6673 C   0  0  0  0  0  0  0  0  0  0  0  0
  106.5947   19.9029   12.9953 N   0  0  0  0  0  0  0  0  0  0  0  0
  109.2247   21.2979   13.1250 N   0  0  0  0  0  0  0  0  0  0  0  0
  1  2  1  0
  2  3  1  0
  1  4  1  0
  3  5  1  0
  5  4  1  1
  3  6  1  0
  6  7  1  0
  5  8  1  0
  7  9  1  0
  8  9  1  0
  7 10  1  0
 10 11  1  0
 12 10  1  1
 12 13  1  0
 12 14  1  0
 13 15  2  0
 14 16  1  0
 15 17  1  0
 14 18  1  6
 11 19  1  0
 16 19  1  0
 15 20  1  0
 18 20  1  0
 17 21  1  0
M  END
$$$$
67
     RDKit          3D

 21 24  0  0  0  0  0  0  0  0999 V2000
  109.6773   19.2469   21.0007 N   0  0  0  0  0  0  0  0  0  0  0  0
  108.8675   19.4096   20.1662 C   0  0  0  0  0  0  0  0  0  0  0  0
  108.1492   19.5697   18.9636 C   0  0  2  0  0  0  0  0  0  0  0  0
  106.9369   18.8892   18.8669 C   0  0  0  0  0  0  0  0  0  0  0  0
  106.3019   18.8594   17.5815 C   0  0  2  0  0  0  0  0  0  0  0  0
  108.8228   20.2765   17.8279 C   0  0  0  0  0  0  0  0  0  0  0  0
  106.1530   18.1765   19.9235 C   0  0  0  0  0  0  0  0  0  0  0  0
  106.9216   19.6254   16.5366 C   0  0  2  0  0  0  0  0  0  0  0  0
  105.2151   18.4034   17.6339 N   0  0  0  0  0  0  0  0  0  0  0  0
  106.3947   19.4401   15.1897 C   0  0  0  0  0  0  0  0  0  0  0  0
  108.2095   20.2110   16.5337 C   0  0  0  0  0  0  0  0  0  0  0  0
  104.8797   17.8645   18.9905 C   0  0  1  0  0  0  0  0  0  0  0  0
  104.1310   18.1905   16.6506 C   0  0  0  0  0  0  0  0  0  0  0  0
  103.2036   17.2468   16.8335 C   0  0  0  0  0  0  0  0  0  0  0  0
  104.5139   18.5350   15.2137 C   0  0  0  0  0  0  0  0  0  0  0  0
  107.1010   20.2077   14.2788 O   0  0  0  0  0  0  0  0  0  0  0  0
  105.4754   18.7623   14.7433 N   0  0  0  0  0  0  0  0  0  0  0  0
  102.7528   16.6100   18.0992 C   0  0  0  0  0  0  0  0  0  0  0  0
  105.4395   18.5430   13.2770 C   0  0  0  0  0  0  0  0  0  0  0  0
  104.2008   16.5924   18.9057 C   0  0  0  0  0  0  0  0  0  0  0  0
  103.2183   18.3517   14.5408 O   0  0  0  0  0  0  0  0  0  0  0  0
  1  2  3  0
  3  2  1  6
  3  4  1  0
  5  4  1  1
  3  6  1  0
  4  7  1  0
  5  8  1  0
  5  9  1  0
  8 10  1  0
  6 11  1  0
  8 11  1  6
 12  7  1  1
  9 12  1  0
  9 13  1  0
 13 14  2  0
 13 15  1  0
 10 16  2  0
 10 17  1  0
 15 17  1  0
 14 18  1  0
 17 19  1  0
 12 20  1  0
 18 20  1  0
 15 21  2  0
M  END
$$$$
68
     RDKit          3D

 21 24  0  0  0  0  0  0  0  0999 V2000
  110.2751   18.3457   20.1327 N   0  0  0  0  0  0  0  0  0  0  0  0
  109.5386   19.2265   20.2534 C   0  0  0  0  0  0  0  0  0  0  0  0
  109.8783   20.4450   20.2804 O   0  0  0  0  0  0  0  0  0  0  0  0
  108.0443   18.9023   20.3796 C   0  0  1  0  0  0  0  0  0  0  0  0
  107.4419   18.7474   21.4972 C   0  0  0  0  0  0  0  0  0  0  0  0
  107.1758   19.1336   19.1951 C   0  0  1  0  0  0  0  0  0  0  0  0
  107.6788   19.2427   17.8532 C   0  0  0  0  0  0  0  0  0  0  0  0
  105.8580   18.7719   19.4091 C   0  0  1  0  0  0  0  0  0  0  0  0
  106.0882   18.5247   21.6783 C   0  0  0  0  0  0  0  0  0  0  0  0
  105.2867   18.5079   20.6086 N   0  0  0  0  0  0  0  0  0  0  0  0
  104.9625   18.7488   18.2358 C   0  0  2  0  0  0  0  0  0  0  0  0
  103.5754   18.3670   18.3808 C   0  0  0  0  0  0  0  0  0  0  0  0
  105.4849   18.8920   16.9027 C   0  0  1  0  0  0  0  0  0  0  0  0
  106.8628   19.1962   16.7394 C   0  0  0  0  0  0  0  0  0  0  0  0
  103.2186   17.0728   18.0932 C   0  0  0  0  0  0  0  0  0  0  0  0
  104.6569   18.6513   15.7051 C   0  0  2  0  0  0  0  0  0  0  0  0
  102.8037   16.9008   16.6548 C   0  0  0  0  0  0  0  0  0  0  0  0
  103.9099   17.3237   15.7261 N   0  0  0  0  0  0  0  0  0  0  0  0
  103.6176   17.0994   14.2106 C   0  0  0  0  0  0  0  0  0  0  0  0
  104.6378   17.8587   13.5639 N   0  0  0  0  0  0  0  0  0  0  0  0
  105.3730   18.6648   14.4545 C   0  0  0  0  0  0  0  0  0  0  0  0
  1  2  1  0
  2  3  2  0
  4  2  1  1
  4  5  1  0
  4  6  1  0
  6  7  1  6
  6  8  1  0
  5  9  1  0
  8 10  1  1
  9 10  1  0
  8 11  1  0
 11 12  1  6
 11 13  1  0
  7 14  1  0
 13 14  1  1
 12 15  1  0
 13 16  1  0
 15 17  1  0
 16 18  1  0
 17 18  1  0
 18 19  1  0
 19 20  1  0
 16 21  1  6
 20 21  1  0
M  END
$$$$
69
     RDKit          3D

 21 25  0  0  0  0  0  0  0  0999 V2000
  109.3736   19.7959   20.5107 C   0  0  0  0  0  0  0  0  0  0  0  0
  108.7626   19.6935   19.3488 C   0  0  0  0  0  0  0  0  0  0  0  0
  108.7254   19.2992   21.6446 N   0  0  0  0  0  0  0  0  0  0  0  0
  107.4188   19.1718   19.1978 C   0  0  1  0  0  0  0  0  0  0  0  0
  106.8371   19.0131   17.9066 C   0  0  1  0  0  0  0  0  0  0  0  0
  105.5601   18.5657   17.7965 C   0  0  0  0  0  0  0  0  0  0  0  0
  106.7207   18.5999   20.1798 C   0  0  1  0  0  0  0  0  0  0  0  0
  107.4284   19.5055   16.6337 N   0  0  0  0  0  0  0  0  0  0  0  0
  105.0213   18.5724   16.4639 C   0  0  1  0  0  0  0  0  0  0  0  0
  106.7136   19.4117   15.5605 C   0  0  2  0  0  0  0  0  0  0  0  0
  105.5485   18.9119   15.3975 C   0  0  2  0  0  0  0  0  0  0  0  0
  104.8906   18.1387   19.0034 N   0  0  0  0  0  0  0  0  0  0  0  0
  107.4142   18.7764   21.5378 C   0  0  0  0  0  0  0  0  0  0  0  0
  105.4344   18.1446   20.1630 C   0  0  0  0  0  0  0  0  0  0  0  0
  103.5679   17.9187   16.4016 C   0  0  0  0  0  0  0  0  0  0  0  0
  107.5332   19.8736   14.3148 C   0  0  0  0  0  0  0  0  0  0  0  0
  104.7884   18.7947   13.9802 C   0  0  1  0  0  0  0  0  0  0  0  0
  103.0383   17.9318   15.0846 C   0  0  0  0  0  0  0  0  0  0  0  0
  105.5052   19.2710   12.8397 C   0  0  0  0  0  0  0  0  0  0  0  0
  106.9627   19.9444   13.1462 C   0  0  0  0  0  0  0  0  0  0  0  0
  103.7042   18.2339   14.0129 N   0  0  0  0  0  0  0  0  0  0  0  0
  1  2  1  0
  1  3  1  0
  4  2  1  6
  4  5  1  0
  5  6  1  0
  4  7  1  0
  5  8  1  1
  6  9  1  0
  8 10  1  0
 11  9  1  1
 10 11  1  0
  6 12  1  0
  3 13  1  0
  7 13  1  1
  7 14  1  0
 12 14  1  0
  9 15  1  6
 10 16  1  6
 11 17  1  0
 15 18  1  0
 17 19  1  6
 16 20  1  0
 19 20  1  0
 17 21  1  0
 18 21  1  0
M  END
$$$$
7
     RDKit          3D

 16 17  0  0  0  0  0  0  0  0999 V2000
  105.3101   17.7342   13.5023 N   0  0  0  0  0  0  0  0  0  0  0  0
  106.1181   18.6849   13.6192 C   0  0  0  0  0  0  0  0  0  0  0  0
  106.1719   19.4377   14.7543 C   0  0  2  0  0  0  0  0  0  0  0  0
  107.2456   19.3609   12.6428 C   0  0  2  0  0  0  0  0  0  0  0  0
  107.4332   18.7425   11.3966 O   0  0  0  0  0  0  0  0  0  0  0  0
  107.0675   20.4009   15.0909 N   0  0  0  0  0  0  0  0  0  0  0  0
  105.1327   18.9801   15.6923 C   0  0  0  0  0  0  0  0  0  0  0  0
  108.0122   20.3923   13.0311 C   0  0  0  0  0  0  0  0  0  0  0  0
  104.3047   17.4819   14.2203 C   0  0  0  0  0  0  0  0  0  0  0  0
  107.9314   20.8543   14.2707 C   0  0  0  0  0  0  0  0  0  0  0  0
  104.2255   18.0949   15.4261 C   0  0  0  0  0  0  0  0  0  0  0  0
  107.0340   19.5213   10.3253 C   0  0  0  0  0  0  0  0  0  0  0  0
  103.1384   17.7985   16.5022 C   0  0  0  0  0  0  0  0  0  0  0  0
  103.4131   17.0130   17.3885 C   0  0  0  0  0  0  0  0  0  0  0  0
  102.8481   17.1798   18.5810 N   0  0  0  0  0  0  0  0  0  0  0  0
  104.3902   16.1083   17.5157 O   0  0  0  0  0  0  0  0  0  0  0  0
  1  2  1  0
  2  3  1  0
  2  4  1  0
  4  5  1  1
  3  6  1  0
  3  7  1  1
  4  8  1  0
  1  9  1  0
  6 10  1  0
  8 10  1  0
  7 11  1  0
  9 11  1  0
  5 12  1  0
 11 13  1  0
 13 14  1  0
 14 15  1  0
 14 16  2  0
M  END
$$$$
70
     RDKit          3D

 21 25  0  0  0  0  0  0  0  0999 V2000
  109.3736   19.7959   20.5107 C   0  0  0  0  0  0  0  0  0  0  0  0
  108.6827   19.2455   21.3427 C   0  0  0  0  0  0  0  0  0  0  0  0
  108.8334   19.5856   19.1364 N   0  0  0  0  0  0  0  0  0  0  0  0
  107.2273   18.9861   20.7869 C   0  0  2  0  0  0  0  0  0  0  0  0
  106.1144   18.4782   21.3004 C   0  0  0  0  0  0  0  0  0  0  0  0
  107.5800   18.9879   19.4057 C   0  0  1  0  0  0  0  0  0  0  0  0
  105.1031   18.1698   20.3703 N   0  0  0  0  0  0  0  0  0  0  0  0
  106.5780   18.6834   18.4637 C   0  0  1  0  0  0  0  0  0  0  0  0
  105.3232   18.3133   19.0313 C   0  0  1  0  0  0  0  0  0  0  0  0
  106.7014   18.8675   17.0369 N   0  0  0  0  0  0  0  0  0  0  0  0
  104.3923   17.9919   18.0043 N   0  0  0  0  0  0  0  0  0  0  0  0
  104.6881   18.1038   16.7361 C   0  0  0  0  0  0  0  0  0  0  0  0
  107.9351   19.4261   16.5973 C   0  0  0  0  0  0  0  0  0  0  0  0
  107.9610   19.9536   15.3992 C   0  0  0  0  0  0  0  0  0  0  0  0
  105.8132   18.5440   16.2075 C   0  0  0  0  0  0  0  0  0  0  0  0
  105.9405   18.6314   14.7621 C   0  0  2  0  0  0  0  0  0  0  0  0
  103.6395   17.6959   15.6362 C   0  0  0  0  0  0  0  0  0  0  0  0
  107.1521   19.3776   14.4337 N   0  0  0  0  0  0  0  0  0  0  0  0
  107.2406   19.6736   12.9957 C   0  0  0  0  0  0  0  0  0  0  0  0
  103.8870   17.7773   14.3291 C   0  0  0  0  0  0  0  0  0  0  0  0
  104.9834   18.4063   13.8871 N   0  0  0  0  0  0  0  0  0  0  0  0
  1  2  1  0
  1  3  1  0
  4  2  1  1
  4  5  1  0
  6  3  1  6
  4  6  1  0
  5  7  1  0
  6  8  1  0
  9  7  1  1
  8  9  1  0
  8 10  1  6
  9 11  1  0
 11 12  1  0
 10 13  1  0
 13 14  1  0
 10 15  1  0
 12 15  1  0
 15 16  1  0
 12 17  1  0
 14 18  1  0
 16 18  1  0
 18 19  1  0
 17 20  1  0
 16 21  1  1
 20 21  1  0
M  END
$$$$
71
     RDKit          3D

 21 25  0  0  0  0  0  0  0  0999 V2000
  109.3736   19.7959   20.5107 C   0  0  0  0  0  0  0  0  0  0  0  0
  108.6827   19.2455   21.3427 C   0  0  0  0  0  0  0  0  0  0  0  0
  108.8334   19.5856   19.1364 N   0  0  0  0  0  0  0  0  0  0  0  0
  107.2273   18.9861   20.7869 C   0  0  2  0  0  0  0  0  0  0  0  0
  106.1144   18.4782   21.3004 C   0  0  0  0  0  0  0  0  0  0  0  0
  107.5800   18.9879   19.4057 C   0  0  1  0  0  0  0  0  0  0  0  0
  105.1031   18.1698   20.3703 N   0  0  0  0  0  0  0  0  0  0  0  0
  106.5780   18.6834   18.4637 C   0  0  1  0  0  0  0  0  0  0  0  0
  105.3232   18.3133   19.0313 C   0  0  1  0  0  0  0  0  0  0  0  0
  106.7014   18.8675   17.0369 N   0  0  0  0  0  0  0  0  0  0  0  0
  104.3923   17.9919   18.0043 N   0  0  0  0  0  0  0  0  0  0  0  0
  104.6881   18.1038   16.7361 C   0  0  0  0  0  0  0  0  0  0  0  0
  107.9351   19.4261   16.5973 C   0  0  0  0  0  0  0  0  0  0  0  0
  107.9610   19.9536   15.3992 C   0  0  0  0  0  0  0  0  0  0  0  0
  105.8132   18.5440   16.2075 C   0  0  1  0  0  0  0  0  0  0  0  0
  105.8664   18.7659   14.8032 C   0  0  2  0  0  0  0  0  0  0  0  0
  106.9966   19.4593   14.3614 C   0  0  1  0  0  0  0  0  0  0  0  0
  103.4888   17.6495   15.8270 C   0  0  0  0  0  0  0  0  0  0  0  0
  103.6827   17.8593   14.4611 C   0  0  0  0  0  0  0  0  0  0  0  0
  104.8195   18.4102   13.9282 C   0  0  0  0  0  0  0  0  0  0  0  0
  107.1666   19.8198   12.9911 C   0  0  0  0  0  0  0  0  0  0  0  0
  1  2  1  0
  1  3  1  0
  4  2  1  1
  4  5  1  0
  6  3  1  6
  4  6  1  0
  5  7  1  0
  6  8  1  0
  9  7  1  1
  8  9  1  0
  8 10  1  6
  9 11  1  0
 11 12  1  0
 10 13  1  0
 13 14  1  0
 10 15  1  0
 15 12  1  1
 15 16  1  0
 14 17  1  0
 16 17  1  0
 12 18  1  0
 18 19  1  0
 16 20  1  1
 19 20  1  0
 17 21  1  1
M  END
$$$$
72
     RDKit          3D

 21 24  0  0  0  0  0  0  0  0999 V2000
  109.3736   19.7959   20.5107 C   0  0  0  0  0  0  0  0  0  0  0  0
  108.7626   19.6935   19.3488 N   0  0  0  0  0  0  0  0  0  0  0  0
  107.6689   19.1153   19.0447 C   0  0  0  0  0  0  0  0  0  0  0  0
  107.1314   19.0454   17.6821 C   0  0  1  0  0  0  0  0  0  0  0  0
  106.0549   18.7270   17.4508 N   0  0  0  0  0  0  0  0  0  0  0  0
  106.8822   18.4880   19.9912 C   0  0  1  0  0  0  0  0  0  0  0  0
  107.2931   18.6277   21.3351 N   0  0  0  0  0  0  0  0  0  0  0  0
  105.1863   18.1557   18.4370 C   0  0  0  0  0  0  0  0  0  0  0  0
  106.6410   18.3092   22.3638 C   0  0  0  0  0  0  0  0  0  0  0  0
  107.9625   19.6076   16.4762 C   0  0  0  0  0  0  0  0  0  0  0  0
  105.6201   18.1086   19.7424 N   0  0  0  0  0  0  0  0  0  0  0  0
  108.5971   19.2351   21.5532 C   0  0  0  0  0  0  0  0  0  0  0  0
  103.7204   17.5488   18.1769 C   0  0  0  0  0  0  0  0  0  0  0  0
  103.6186   17.3353   16.9287 C   0  0  0  0  0  0  0  0  0  0  0  0
  104.1770   18.2684   15.8677 C   0  0  1  0  0  0  0  0  0  0  0  0
  105.5621   18.7272   16.1035 C   0  0  1  0  0  0  0  0  0  0  0  0
  106.4415   19.3979   15.1729 C   0  0  0  0  0  0  0  0  0  0  0  0
  107.4353   19.7452   15.3414 C   0  0  0  0  0  0  0  0  0  0  0  0
  104.1479   17.6633   14.4349 C   0  0  0  0  0  0  0  0  0  0  0  0
  104.3438   18.4136   13.4985 O   0  0  0  0  0  0  0  0  0  0  0  0
  103.4667   16.6452   14.3553 O   0  0  0  0  0  0  0  0  0  0  0  0
  1  2  1  0
  2  3  1  0
  3  4  1  0
  4  5  1  0
  3  6  1  0
  6  7  1  0
  5  8  1  0
  7  9  1  0
  4 10  1  1
  6 11  1  1
  8 11  1  0
  1 12  1  0
  7 12  1  0
  8 13  1  0
 13 14  1  0
 14 15  1  0
  5 16  1  0
 15 16  1  0
 16 17  1  1
 10 18  1  0
 17 18  1  0
 15 19  1  6
 19 20  2  0
 19 21  1  0
M  END
$$$$
73
     RDKit          3D

 21 24  0  0  0  0  0  0  0  0999 V2000
  110.0053   18.8959   20.6904 N   0  0  0  0  0  0  0  0  0  0  0  0
  109.5367   19.3102   19.5323 C   0  0  0  0  0  0  0  0  0  0  0  0
  108.0837   19.2454   19.2707 C   0  0  1  0  0  0  0  0  0  0  0  0
  108.8425   18.7867   21.5600 C   0  0  0  0  0  0  0  0  0  0  0  0
  107.6172   19.3622   17.8783 C   0  0  1  0  0  0  0  0  0  0  0  0
  107.2346   18.9035   20.2466 C   0  0  0  0  0  0  0  0  0  0  0  0
  108.4311   19.6865   16.8065 N   0  0  0  0  0  0  0  0  0  0  0  0
  106.3239   19.0267   17.6438 C   0  0  0  0  0  0  0  0  0  0  0  0
  105.9406   19.1059   16.2655 N   0  0  0  0  0  0  0  0  0  0  0  0
  107.6007   18.7572   21.4700 N   0  0  0  0  0  0  0  0  0  0  0  0
  106.9158   19.5049   15.4005 C   0  0  0  0  0  0  0  0  0  0  0  0
  104.5351   18.7132   15.7938 C   0  0  0  0  0  0  0  0  0  0  0  0
  106.3947   19.5755   13.9993 N   0  0  0  0  0  0  0  0  0  0  0  0
  105.2843   18.8911   13.6068 C   0  0  0  0  0  0  0  0  0  0  0  0
  108.1821   19.7854   15.6862 C   0  0  0  0  0  0  0  0  0  0  0  0
  107.1393   20.4364   13.2437 C   0  0  0  0  0  0  0  0  0  0  0  0
  105.1422   18.7864   12.5323 O   0  0  0  0  0  0  0  0  0  0  0  0
  105.5182   18.6185   18.6606 C   0  0  0  0  0  0  0  0  0  0  0  0
  105.8461   18.7172   19.9643 C   0  0  0  0  0  0  0  0  0  0  0  0
  104.4801   18.1970   14.4777 C   0  0  1  0  0  0  0  0  0  0  0  0
  104.8754   16.7478   14.4499 O   0  0  0  0  0  0  0  0  0  0  0  0
  1  2  1  0
  3  2  1  6
  1  4  1  0
  3  5  1  0
  3  6  1  0
  5  7  1  6
  5  8  1  0
  8  9  1  0
  4 10  1  0
  6 10  1  0
  9 11  1  0
  9 12  1  0
 11 13  1  0
 13 14  1  0
  7 15  1  0
 11 15  1  0
 13 16  1  0
 14 17  2  0
  8 18  1  0
  6 19  1  0
 18 19  1  0
 12 20  1  0
 14 20  1  0
 20 21  1  1
M  END
$$$$
74
     RDKit          3D

 21 25  0  0  0  0  0  0  0  0999 V2000
  109.3736   19.7959   20.5107 C   0  0  0  0  0  0  0  0  0  0  0  0
  108.7626   19.6935   19.3488 N   0  0  0  0  0  0  0  0  0  0  0  0
  108.7098   19.3317   21.5964 N   0  0  0  0  0  0  0  0  0  0  0  0
  107.3404   18.9811   21.1786 C   0  0  0  0  0  0  0  0  0  0  0  0
  109.0728   19.8995   18.0210 C   0  0  0  0  0  0  0  0  0  0  0  0
  107.4545   19.1323   19.7864 C   0  0  0  0  0  0  0  0  0  0  0  0
  108.1303   19.6346   17.0522 C   0  0  0  0  0  0  0  0  0  0  0  0
  106.4675   18.8612   18.7554 C   0  0  2  0  0  0  0  0  0  0  0  0
  106.7682   19.1930   17.4653 C   0  0  2  0  0  0  0  0  0  0  0  0
  105.7699   18.9399   16.4230 N   0  0  0  0  0  0  0  0  0  0  0  0
  105.7914   19.1466   15.1132 C   0  0  0  0  0  0  0  0  0  0  0  0
  104.7670   17.9865   16.9707 C   0  0  2  0  0  0  0  0  0  0  0  0
  103.6935   17.8658   16.0524 C   0  0  0  0  0  0  0  0  0  0  0  0
  104.2980   18.3558   18.2956 C   0  0  0  0  0  0  0  0  0  0  0  0
  104.1056   17.9878   14.6549 C   0  0  0  0  0  0  0  0  0  0  0  0
  105.3056   18.3742   19.3108 C   0  0  0  0  0  0  0  0  0  0  0  0
  104.9141   18.8235   14.2417 C   0  0  2  0  0  0  0  0  0  0  0  0
  105.0965   19.2945   12.7134 C   0  0  0  0  0  0  0  0  0  0  0  0
  106.1756   19.8305   12.4271 N   0  0  0  0  0  0  0  0  0  0  0  0
  107.1353   20.1421   13.4181 C   0  0  0  0  0  0  0  0  0  0  0  0
  106.9433   19.8929   14.6328 C   0  0  0  0  0  0  0  0  0  0  0  0
  1  2  1  0
  1  3  1  0
  3  4  1  0
  2  5  1  0
  2  6  1  0
  4  6  1  0
  5  7  1  0
  6  8  1  0
  9  7  1  6
  8  9  1  0
  9 10  1  0
 10 11  1  0
 10 12  1  0
 12 13  1  6
 12 14  1  0
 13 15  1  0
  8 16  1  1
 14 16  1  0
 11 17  1  0
 17 15  1  6
 17 18  1  0
 18 19  1  0
 19 20  1  0
 11 21  1  0
 20 21  1  0
M  END
$$$$
75
     RDKit          3D

 21 24  0  0  0  0  0  0  0  0999 V2000
  109.2263   19.0231   21.5268 O   0  0  0  0  0  0  0  0  0  0  0  0
  107.8763   19.2162   21.5435 C   0  0  0  0  0  0  0  0  0  0  0  0
  107.1468   19.3565   22.4913 N   0  0  0  0  0  0  0  0  0  0  0  0
  107.2428   18.8643   20.2377 C   0  0  2  0  0  0  0  0  0  0  0  0
  107.7101   19.5705   23.8058 O   0  0  0  0  0  0  0  0  0  0  0  0
  107.9508   19.0587   18.9722 C   0  0  0  0  0  0  0  0  0  0  0  0
  105.8778   18.6057   20.1762 C   0  0  0  0  0  0  0  0  0  0  0  0
  105.2267   18.3645   18.9774 C   0  0  0  0  0  0  0  0  0  0  0  0
  105.9939   18.5412   17.7560 C   0  0  0  0  0  0  0  0  0  0  0  0
  103.6637   17.9303   19.0096 C   0  0  0  0  0  0  0  0  0  0  0  0
  103.3594   17.1448   18.0661 C   0  0  0  0  0  0  0  0  0  0  0  0
  107.2729   18.9181   17.7580 C   0  0  1  0  0  0  0  0  0  0  0  0
  103.6915   17.4926   16.6326 N   0  0  0  0  0  0  0  0  0  0  0  0
  105.2570   18.2290   16.4413 C   0  0  1  0  0  0  0  0  0  0  0  0
  105.4927   18.4937   15.2095 C   0  0  2  0  0  0  0  0  0  0  0  0
  103.0214   17.6931   15.4583 C   0  0  0  0  0  0  0  0  0  0  0  0
  104.1105   17.8982   14.3664 C   0  0  0  0  0  0  0  0  0  0  0  0
  106.5895   19.0328   14.5494 C   0  0  2  0  0  0  0  0  0  0  0  0
  107.3953   19.9215   15.2818 N   0  0  0  0  0  0  0  0  0  0  0  0
  106.8132   18.9557   13.2248 N   0  0  0  0  0  0  0  0  0  0  0  0
  107.8673   19.5327   16.6644 C   0  0  0  0  0  0  0  0  0  0  0  0
  1  2  2  0
  2  3  1  0
  4  2  1  1
  3  5  1  0
  4  6  1  0
  4  7  1  0
  7  8  1  0
  8  9  1  0
  8 10  1  0
 10 11  1  0
 12  6  1  1
  9 12  1  0
 11 13  1  0
  9 14  1  0
 14 13  1  1
 14 15  1  0
 13 16  1  0
 15 17  1  6
 16 17  1  0
 15 18  1  0
 18 19  1  0
 18 20  1  6
 12 21  1  0
 19 21  1  0
M  END
$$$$
76
     RDKit          3D

 21 23  0  0  0  0  0  0  0  0999 V2000
  108.9002   19.2792   21.6719 N   0  0  0  0  0  0  0  0  0  0  0  0
  109.2705   19.1264   20.4637 C   0  0  0  0  0  0  0  0  0  0  0  0
  108.2474   19.1170   19.4680 C   0  0  1  0  0  0  0  0  0  0  0  0
  110.5457   19.1790   20.1865 O   0  0  0  0  0  0  0  0  0  0  0  0
  107.2898   19.1316   21.7711 C   0  0  0  0  0  0  0  0  0  0  0  0
  108.6979   19.0090   18.0502 N   0  0  0  0  0  0  0  0  0  0  0  0
  106.9371   18.8540   19.6662 C   0  0  1  0  0  0  0  0  0  0  0  0
  107.5210   19.1466   17.3168 C   0  0  0  0  0  0  0  0  0  0  0  0
  106.4890   18.8546   20.8890 N   0  0  0  0  0  0  0  0  0  0  0  0
  106.2587   18.7595   18.4107 C   0  0  2  0  0  0  0  0  0  0  0  0
  104.9189   18.6168   18.0834 C   0  0  1  0  0  0  0  0  0  0  0  0
  104.5236   18.5713   16.7085 C   0  0  0  0  0  0  0  0  0  0  0  0
  103.2379   18.0546   16.3734 C   0  0  2  0  0  0  0  0  0  0  0  0
  102.8073   17.0494   17.1968 C   0  0  0  0  0  0  0  0  0  0  0  0
  104.5912   17.3329   18.9063 N   0  0  0  0  0  0  0  0  0  0  0  0
  103.2933   17.4073   14.9333 C   0  0  0  0  0  0  0  0  0  0  0  0
  104.2234   18.1608   14.0533 N   0  0  0  0  0  0  0  0  0  0  0  0
  105.3208   17.6171   13.4944 C   0  0  0  0  0  0  0  0  0  0  0  0
  103.1805   17.0152   18.6207 C   0  0  0  0  0  0  0  0  0  0  0  0
  105.7517   16.5770   13.8780 O   0  0  0  0  0  0  0  0  0  0  0  0
  105.9921   18.4613   12.5166 C   0  0  0  0  0  0  0  0  0  0  0  0
  1  2  1  0
  2  3  1  0
  2  4  2  0
  1  5  1  0
  3  6  1  6
  3  7  1  0
  6  8  1  0
  5  9  1  0
  7  9  1  1
  7 10  1  0
 10  8  1  6
 10 11  1  0
 11 12  1  6
 12 13  1  0
 13 14  1  0
 11 15  1  0
 13 16  1  6
 16 17  1  0
 17 18  1  0
 14 19  1  0
 15 19  1  0
 18 20  2  0
 18 21  1  0
M  END
$$$$
77
     RDKit          3D

 21 24  0  0  0  0  0  0  0  0999 V2000
  109.3736   19.7959   20.5107 C   0  0  0  0  0  0  0  0  0  0  0  0
  108.6827   19.2455   21.3427 C   0  0  0  0  0  0  0  0  0  0  0  0
  108.8334   19.5856   19.1364 N   0  0  0  0  0  0  0  0  0  0  0  0
  107.2273   18.9861   20.7869 C   0  0  2  0  0  0  0  0  0  0  0  0
  106.1144   18.4782   21.3004 N   0  0  0  0  0  0  0  0  0  0  0  0
  105.1237   18.2174   20.5596 C   0  0  0  0  0  0  0  0  0  0  0  0
  107.3343   19.1891   19.4015 C   0  0  2  0  0  0  0  0  0  0  0  0
  106.3502   18.8344   18.5377 C   0  0  1  0  0  0  0  0  0  0  0  0
  105.1990   18.3997   19.1554 N   0  0  0  0  0  0  0  0  0  0  0  0
  106.3656   19.0030   17.1569 N   0  0  0  0  0  0  0  0  0  0  0  0
  107.4311   19.5126   16.4701 C   0  0  2  0  0  0  0  0  0  0  0  0
  108.5714   19.7090   16.9012 O   0  0  0  0  0  0  0  0  0  0  0  0
  105.1945   18.6349   16.4252 C   0  0  0  0  0  0  0  0  0  0  0  0
  107.2780   20.3096   15.2499 C   0  0  0  0  0  0  0  0  0  0  0  0
  106.1409   19.7621   14.4427 N   0  0  0  0  0  0  0  0  0  0  0  0
  104.4179   17.9134   16.8468 O   0  0  0  0  0  0  0  0  0  0  0  0
  109.0409   19.8801   18.1825 C   0  0  0  0  0  0  0  0  0  0  0  0
  105.1827   18.8064   15.0023 C   0  0  2  0  0  0  0  0  0  0  0  0
  104.2039   18.3049   14.1790 C   0  0  0  0  0  0  0  0  0  0  0  0
  104.1963   16.9644   14.1633 N   0  0  0  0  0  0  0  0  0  0  0  0
  102.9094   18.7379   14.6367 N   0  0  0  0  0  0  0  0  0  0  0  0
  1  2  1  0
  1  3  1  0
  4  2  1  6
  4  5  1  0
  5  6  1  0
  7  3  1  6
  4  7  1  0
  7  8  1  0
  6  9  1  0
  8  9  1  1
  8 10  1  0
 10 11  1  0
 11 12  1  0
 10 13  1  0
 11 14  1  1
 14 15  1  0
 13 16  2  0
  3 17  1  0
 12 17  1  0
 13 18  1  0
 15 18  1  0
 18 19  1  1
 19 20  1  0
 19 21  1  0
M  END
$$$$
78
     RDKit          3D

 21 23  0  0  0  0  0  0  0  0999 V2000
  110.2751   18.3457   20.1327 N   0  0  0  0  0  0  0  0  0  0  0  0
  109.5386   19.2265   20.2534 C   0  0  0  0  0  0  0  0  0  0  0  0
  109.8783   20.4450   20.2804 O   0  0  0  0  0  0  0  0  0  0  0  0
  108.0443   18.9023   20.3796 C   0  0  1  0  0  0  0  0  0  0  0  0
  107.4419   18.7474   21.4972 C   0  0  0  0  0  0  0  0  0  0  0  0
  107.1758   19.1336   19.1951 C   0  0  1  0  0  0  0  0  0  0  0  0
  107.6788   19.2427   17.8532 C   0  0  0  0  0  0  0  0  0  0  0  0
  105.8580   18.7719   19.4091 C   0  0  1  0  0  0  0  0  0  0  0  0
  106.0882   18.5247   21.6783 C   0  0  0  0  0  0  0  0  0  0  0  0
  105.2867   18.5079   20.6086 N   0  0  0  0  0  0  0  0  0  0  0  0
  104.9625   18.7488   18.2358 C   0  0  2  0  0  0  0  0  0  0  0  0
  103.5754   18.3670   18.3808 C   0  0  0  0  0  0  0  0  0  0  0  0
  105.4849   18.8920   16.9027 C   0  0  2  0  0  0  0  0  0  0  0  0
  106.8628   19.1962   16.7394 C   0  0  0  0  0  0  0  0  0  0  0  0
  103.2186   17.0728   18.0932 C   0  0  0  0  0  0  0  0  0  0  0  0
  104.6034   18.8053   15.6010 C   0  0  1  0  0  0  0  0  0  0  0  0
  102.5587   16.8969   16.8270 C   0  0  0  0  0  0  0  0  0  0  0  0
  104.0320   17.4911   15.3805 N   0  0  0  0  0  0  0  0  0  0  0  0
  103.0369   17.0371   15.6710 N   0  0  0  0  0  0  0  0  0  0  0  0
  103.5420   19.7751   15.5420 C   0  0  0  0  0  0  0  0  0  0  0  0
  105.1420   16.6743   14.4866 C   0  0  0  0  0  0  0  0  0  0  0  0
  1  2  1  0
  2  3  2  0
  4  2  1  1
  4  5  1  0
  4  6  1  0
  6  7  1  6
  6  8  1  0
  5  9  1  0
  8 10  1  1
  9 10  1  0
  8 11  1  0
 11 12  1  6
 11 13  1  0
  7 14  1  0
 13 14  1  1
 12 15  1  0
 13 16  1  0
 15 17  1  0
 16 18  1  0
 17 19  1  0
 18 19  1  0
 16 20  1  1
 18 21  1  0
M  END
$$$$
79
     RDKit          3D

 22 25  0  0  0  0  0  0  0  0999 V2000
  109.6773   19.2469   21.0007 N   0  0  0  0  0  0  0  0  0  0  0  0
  108.8675   19.4096   20.1662 C   0  0  0  0  0  0  0  0  0  0  0  0
  108.1492   19.5697   18.9636 C   0  0  2  0  0  0  0  0  0  0  0  0
  106.9369   18.8892   18.8669 C   0  0  0  0  0  0  0  0  0  0  0  0
  106.3019   18.8594   17.5815 C   0  0  2  0  0  0  0  0  0  0  0  0
  108.8228   20.2765   17.8279 C   0  0  0  0  0  0  0  0  0  0  0  0
  106.1530   18.1765   19.9235 C   0  0  0  0  0  0  0  0  0  0  0  0
  106.9216   19.6254   16.5366 C   0  0  2  0  0  0  0  0  0  0  0  0
  105.2151   18.4034   17.6339 N   0  0  0  0  0  0  0  0  0  0  0  0
  106.3947   19.4401   15.1897 C   0  0  0  0  0  0  0  0  0  0  0  0
  108.2095   20.2110   16.5337 C   0  0  0  0  0  0  0  0  0  0  0  0
  104.8797   17.8645   18.9905 C   0  0  1  0  0  0  0  0  0  0  0  0
  104.1310   18.1905   16.6506 C   0  0  0  0  0  0  0  0  0  0  0  0
  103.2036   17.2468   16.8335 C   0  0  0  0  0  0  0  0  0  0  0  0
  104.5139   18.5350   15.2137 C   0  0  0  0  0  0  0  0  0  0  0  0
  107.1010   20.2077   14.2788 O   0  0  0  0  0  0  0  0  0  0  0  0
  105.4754   18.7623   14.7433 N   0  0  0  0  0  0  0  0  0  0  0  0
  102.7528   16.6100   18.0992 C   0  0  0  0  0  0  0  0  0  0  0  0
  105.4395   18.5430   13.2770 C   0  0  0  0  0  0  0  0  0  0  0  0
  104.2008   16.5924   18.9057 C   0  0  0  0  0  0  0  0  0  0  0  0
  106.3215   17.6395   12.8775 O   0  0  0  0  0  0  0  0  0  0  0  0
  104.3888   19.0574   12.6366 O   0  0  0  0  0  0  0  0  0  0  0  0
  1  2  3  0
  3  2  1  6
  3  4  1  0
  5  4  1  1
  3  6  1  0
  4  7  1  0
  5  8  1  0
  5  9  1  0
  8 10  1  0
  6 11  1  0
  8 11  1  6
 12  7  1  1
  9 12  1  0
  9 13  1  0
 13 14  2  0
 13 15  1  0
 10 16  2  0
 10 17  1  0
 15 17  1  0
 14 18  1  0
 17 19  1  0
 12 20  1  0
 18 20  1  0
 19 21  2  0
 19 22  1  0
M  END
$$$$
8
     RDKit          3D

 16 17  0  0  0  0  0  0  0  0999 V2000
  110.0053   18.8959   20.6904 N   0  0  0  0  0  0  0  0  0  0  0  0
  108.7566   19.0573   20.5897 C   0  0  1  0  0  0  0  0  0  0  0  0
  108.1166   18.8661   19.2931 N   0  0  0  0  0  0  0  0  0  0  0  0
  106.7274   18.9353   19.1030 C   0  0  1  0  0  0  0  0  0  0  0  0
  107.9587   19.3332   21.7235 C   0  0  0  0  0  0  0  0  0  0  0  0
  106.6838   19.0780   21.6462 C   0  0  0  0  0  0  0  0  0  0  0  0
  106.1100   18.6485   17.9257 C   0  0  1  0  0  0  0  0  0  0  0  0
  106.0039   18.8514   20.3382 N   0  0  0  0  0  0  0  0  0  0  0  0
  104.7383   18.4025   17.8980 C   0  0  2  0  0  0  0  0  0  0  0  0
  106.6176   18.9342   16.7368 C   0  0  1  0  0  0  0  0  0  0  0  0
  103.9591   17.9794   19.1569 N   0  0  0  0  0  0  0  0  0  0  0  0
  108.0212   19.3784   16.5551 C   0  0  0  0  0  0  0  0  0  0  0  0
  104.3144   17.8454   16.7348 N   0  0  0  0  0  0  0  0  0  0  0  0
  104.8874   18.1072   15.6160 C   0  0  1  0  0  0  0  0  0  0  0  0
  106.0958   18.5043   15.5768 N   0  0  0  0  0  0  0  0  0  0  0  0
  104.1783   17.6728   14.3419 C   0  0  0  0  0  0  0  0  0  0  0  0
  2  1  1  1
  2  3  1  0
  4  3  1  1
  2  5  1  0
  5  6  1  0
  7  4  1  1
  4  8  1  0
  6  8  1  0
  7  9  1  0
  7 10  1  0
  9 11  1  1
 10 12  1  1
  9 13  1  0
 13 14  1  0
 10 15  1  0
 14 15  1  0
 14 16  1  6
M  END
$$$$
80
     RDKit          3D

 22 26  0  0  0  0  0  0  0  0999 V2000
  109.8013   19.3697   20.6067 N   0  0  0  0  0  0  0  0  0  0  0  0
  109.3022   19.2633   19.4179 C   0  0  0  0  0  0  0  0  0  0  0  0
  108.8295   19.3031   21.5823 N   0  0  0  0  0  0  0  0  0  0  0  0
  107.9065   19.0849   19.3758 C   0  0  1  0  0  0  0  0  0  0  0  0
  107.0270   18.7934   18.3585 C   0  0  0  0  0  0  0  0  0  0  0  0
  107.3494   19.0351   20.7349 C   0  0  1  0  0  0  0  0  0  0  0  0
  105.8772   18.6049   18.5774 C   0  0  1  0  0  0  0  0  0  0  0  0
  104.8713   18.3358   17.4686 N   0  0  0  0  0  0  0  0  0  0  0  0
  105.0590   18.3938   16.3561 C   0  0  0  0  0  0  0  0  0  0  0  0
  104.0763   17.9710   15.4351 N   0  0  0  0  0  0  0  0  0  0  0  0
  106.1996   18.7129   21.2652 C   0  0  0  0  0  0  0  0  0  0  0  0
  102.9685   17.4801   16.0532 C   0  0  0  0  0  0  0  0  0  0  0  0
  103.0611   17.4158   17.4749 C   0  0  0  0  0  0  0  0  0  0  0  0
  103.9018   17.6886   18.2098 C   0  0  2  0  0  0  0  0  0  0  0  0
  104.1305   17.9615   14.0599 C   0  0  1  0  0  0  0  0  0  0  0  0
  105.3750   18.4868   20.0012 C   0  0  2  0  0  0  0  0  0  0  0  0
  104.0235   17.8728   19.6066 N   0  0  0  0  0  0  0  0  0  0  0  0
  104.4717   19.1690   13.5222 O   0  0  0  0  0  0  0  0  0  0  0  0
  105.7645   19.6557   13.4483 C   0  0  0  0  0  0  0  0  0  0  0  0
  106.6668   18.7734   12.8572 C   0  0  0  0  0  0  0  0  0  0  0  0
  105.2790   17.0014   13.6179 C   0  0  0  0  0  0  0  0  0  0  0  0
  106.3102   17.4365   13.1433 O   0  0  0  0  0  0  0  0  0  0  0  0
  1  2  1  0
  1  3  1  0
  4  2  1  1
  4  5  1  0
  3  6  1  0
  4  6  1  0
  7  5  1  1
  7  8  1  0
  8  9  1  0
  9 10  1  0
  6 11  1  1
 10 12  1  0
 12 13  1  0
  8 14  1  0
 14 13  1  6
 15 10  1  1
  7 16  1  0
 16 11  1  1
 14 17  1  0
 16 17  1  0
 15 18  1  0
 18 19  1  0
 19 20  1  0
 15 21  1  0
 20 22  1  0
 21 22  1  0
M  END
$$$$
81
     RDKit          3D

 22 25  0  0  0  0  0  0  0  0999 V2000
  109.9463   19.0478   20.8751 N   0  0  0  0  0  0  0  0  0  0  0  0
  109.6102   19.0502   19.5803 N   0  0  0  0  0  0  0  0  0  0  0  0
  108.2036   19.0450   19.3916 C   0  0  0  0  0  0  0  0  0  0  0  0
  108.7813   19.1577   21.6491 C   0  0  0  0  0  0  0  0  0  0  0  0
  107.5581   19.0473   20.6870 C   0  0  2  0  0  0  0  0  0  0  0  0
  107.5274   19.0014   18.0663 C   0  0  0  0  0  0  0  0  0  0  0  0
  106.1870   18.8511   18.0051 C   0  0  0  0  0  0  0  0  0  0  0  0
  106.1648   18.8340   20.5262 C   0  0  0  0  0  0  0  0  0  0  0  0
  105.4923   18.7409   19.3259 C   0  0  0  0  0  0  0  0  0  0  0  0
  105.4953   18.8115   16.7901 N   0  0  0  0  0  0  0  0  0  0  0  0
  104.3401   18.1311   16.5872 C   0  0  0  0  0  0  0  0  0  0  0  0
  106.2736   18.7356   15.4970 C   0  0  2  0  0  0  0  0  0  0  0  0
  106.9213   19.9948   15.2603 C   0  0  0  0  0  0  0  0  0  0  0  0
  105.7765   18.0673   14.3881 C   0  0  1  0  0  0  0  0  0  0  0  0
  107.2293   20.3801   14.1971 C   0  0  0  0  0  0  0  0  0  0  0  0
  104.8875   17.0201   14.6762 N   0  0  0  0  0  0  0  0  0  0  0  0
  108.1272   21.5629   13.8813 C   0  0  0  0  0  0  0  0  0  0  0  0
  105.3104   19.1677   13.4110 C   0  0  0  0  0  0  0  0  0  0  0  0
  103.9871   17.2369   15.6673 C   0  0  0  0  0  0  0  0  0  0  0  0
  107.9504   22.5907   14.3626 O   0  0  0  0  0  0  0  0  0  0  0  0
  106.5475   19.9013   13.0217 C   0  0  0  0  0  0  0  0  0  0  0  0
  108.7458   21.5237   12.6069 O   0  0  0  0  0  0  0  0  0  0  0  0
  1  2  1  0
  2  3  1  0
  1  4  1  0
  3  5  1  0
  5  4  1  1
  3  6  1  0
  6  7  1  0
  5  8  1  0
  7  9  1  0
  8  9  1  0
  7 10  1  0
 10 11  1  0
 12 10  1  1
 12 13  1  0
 12 14  1  0
 13 15  2  0
 14 16  1  0
 15 17  1  0
 14 18  1  6
 11 19  1  0
 16 19  1  0
 17 20  1  0
 15 21  1  0
 18 21  1  0
 17 22  2  0
M  END
$$$$
82
     RDKit          3D

 22 25  0  0  0  0  0  0  0  0999 V2000
  109.6773   19.2469   21.0007 N   0  0  0  0  0  0  0  0  0  0  0  0
  108.8675   19.4096   20.1662 C   0  0  0  0  0  0  0  0  0  0  0  0
  108.1492   19.5697   18.9636 C   0  0  2  0  0  0  0  0  0  0  0  0
  106.9369   18.8892   18.8669 C   0  0  0  0  0  0  0  0  0  0  0  0
  106.3019   18.8594   17.5815 C   0  0  2  0  0  0  0  0  0  0  0  0
  108.8228   20.2765   17.8279 C   0  0  0  0  0  0  0  0  0  0  0  0
  106.1530   18.1765   19.9235 C   0  0  0  0  0  0  0  0  0  0  0  0
  106.9216   19.6254   16.5366 C   0  0  2  0  0  0  0  0  0  0  0  0
  105.2151   18.4034   17.6339 N   0  0  0  0  0  0  0  0  0  0  0  0
  106.3947   19.4401   15.1897 C   0  0  0  0  0  0  0  0  0  0  0  0
  108.2095   20.2110   16.5337 C   0  0  0  0  0  0  0  0  0  0  0  0
  104.8797   17.8645   18.9905 C   0  0  1  0  0  0  0  0  0  0  0  0
  104.1310   18.1905   16.6506 C   0  0  0  0  0  0  0  0  0  0  0  0
  103.2036   17.2468   16.8335 C   0  0  0  0  0  0  0  0  0  0  0  0
  104.5139   18.5350   15.2137 C   0  0  0  0  0  0  0  0  0  0  0  0
  107.1010   20.2077   14.2788 O   0  0  0  0  0  0  0  0  0  0  0  0
  105.4754   18.7623   14.7433 N   0  0  0  0  0  0  0  0  0  0  0  0
  102.7528   16.6100   18.0992 C   0  0  0  0  0  0  0  0  0  0  0  0
  105.4395   18.5430   13.2770 C   0  0  0  0  0  0  0  0  0  0  0  0
  104.2008   16.5924   18.9057 C   0  0  0  0  0  0  0  0  0  0  0  0
  106.3215   17.6395   12.8775 O   0  0  0  0  0  0  0  0  0  0  0  0
  104.8055   19.4591   12.4271 C   0  0  0  0  0  0  0  0  0  0  0  0
  1  2  3  0
  3  2  1  6
  3  4  1  0
  5  4  1  1
  3  6  1  0
  4  7  1  0
  5  8  1  0
  5  9  1  0
  8 10  1  0
  6 11  1  0
  8 11  1  6
 12  7  1  1
  9 12  1  0
  9 13  1  0
 13 14  2  0
 13 15  1  0
 10 16  2  0
 10 17  1  0
 15 17  1  0
 14 18  1  0
 17 19  1  0
 12 20  1  0
 18 20  1  0
 19 21  2  0
 19 22  1  0
M  END
$$$$
83
     RDKit          3D

 22 25  0  0  0  0  0  0  0  0999 V2000
  109.3736   19.7959   20.5107 C   0  0  0  0  0  0  0  0  0  0  0  0
  108.7626   19.6935   19.3488 N   0  0  0  0  0  0  0  0  0  0  0  0
  108.7098   19.3317   21.5964 N   0  0  0  0  0  0  0  0  0  0  0  0
  107.3404   18.9811   21.1786 C   0  0  1  0  0  0  0  0  0  0  0  0
  109.0728   19.8995   18.0210 C   0  0  0  0  0  0  0  0  0  0  0  0
  107.4545   19.1323   19.7864 C   0  0  0  0  0  0  0  0  0  0  0  0
  108.1303   19.6346   17.0522 C   0  0  2  0  0  0  0  0  0  0  0  0
  106.4675   18.8612   18.7554 C   0  0  0  0  0  0  0  0  0  0  0  0
  106.3583   18.3519   21.7286 N   0  0  0  0  0  0  0  0  0  0  0  0
  108.2950   19.8592   15.7139 N   0  0  0  0  0  0  0  0  0  0  0  0
  107.4525   20.2305   14.8587 C   0  0  1  0  0  0  0  0  0  0  0  0
  106.7752   19.1286   17.4787 C   0  0  2  0  0  0  0  0  0  0  0  0
  107.7854   20.2741   13.4891 C   0  0  0  0  0  0  0  0  0  0  0  0
  106.2091   19.1868   14.9365 C   0  0  1  0  0  0  0  0  0  0  0  0
  106.7629   20.4568   12.5745 N   0  0  0  0  0  0  0  0  0  0  0  0
  105.7528   18.8503   16.4621 N   0  0  0  0  0  0  0  0  0  0  0  0
  104.9911   19.6075   14.1742 C   0  0  1  0  0  0  0  0  0  0  0  0
  104.0026   18.5204   14.1077 C   0  0  2  0  0  0  0  0  0  0  0  0
  104.4386   20.9092   14.6463 C   0  0  0  0  0  0  0  0  0  0  0  0
  105.6965   19.8462   12.7599 C   0  0  0  0  0  0  0  0  0  0  0  0
  102.8176   18.7748   14.6335 C   0  0  0  0  0  0  0  0  0  0  0  0
  104.5307   17.1281   14.4719 O   0  0  0  0  0  0  0  0  0  0  0  0
  1  2  1  0
  1  3  1  0
  3  4  1  0
  2  5  1  0
  2  6  1  0
  4  6  1  0
  7  5  1  1
  6  8  1  0
  4  9  1  6
  7 10  1  0
 10 11  1  0
  7 12  1  0
 12  8  1  6
 11 13  1  6
 11 14  1  0
 13 15  1  0
 12 16  1  0
 14 16  1  1
 14 17  1  0
 17 18  1  0
 17 19  1  1
 15 20  1  0
 17 20  1  0
 18 21  1  1
 18 22  1  0
M  END
$$$$
84
     RDKit          3D

 22 26  0  0  0  0  0  0  0  0999 V2000
  109.3736   19.7959   20.5107 C   0  0  0  0  0  0  0  0  0  0  0  0
  108.6827   19.2455   21.3427 C   0  0  0  0  0  0  0  0  0  0  0  0
  108.8334   19.5856   19.1364 N   0  0  0  0  0  0  0  0  0  0  0  0
  107.2273   18.9861   20.7869 C   0  0  2  0  0  0  0  0  0  0  0  0
  106.1144   18.4782   21.3004 N   0  0  0  0  0  0  0  0  0  0  0  0
  105.1237   18.2174   20.5596 C   0  0  0  0  0  0  0  0  0  0  0  0
  107.3343   19.1891   19.4015 C   0  0  2  0  0  0  0  0  0  0  0  0
  106.3502   18.8344   18.5377 C   0  0  1  0  0  0  0  0  0  0  0  0
  105.1990   18.3997   19.1554 N   0  0  0  0  0  0  0  0  0  0  0  0
  106.3656   19.0030   17.1569 N   0  0  0  0  0  0  0  0  0  0  0  0
  107.4311   19.5126   16.4701 C   0  0  2  0  0  0  0  0  0  0  0  0
  108.5714   19.7090   16.9012 O   0  0  0  0  0  0  0  0  0  0  0  0
  105.1945   18.6349   16.4252 C   0  0  0  0  0  0  0  0  0  0  0  0
  107.2780   20.3096   15.2499 C   0  0  0  0  0  0  0  0  0  0  0  0
  106.1409   19.7621   14.4427 N   0  0  0  0  0  0  0  0  0  0  0  0
  105.0925   19.0962   15.1335 C   0  0  1  0  0  0  0  0  0  0  0  0
  109.2284   19.8495   18.0917 C   0  0  0  0  0  0  0  0  0  0  0  0
  106.4520   19.4910   13.1411 C   0  0  0  0  0  0  0  0  0  0  0  0
  104.3606   17.9979   14.2891 C   0  0  0  0  0  0  0  0  0  0  0  0
  107.4303   20.1245   12.4664 N   0  0  0  0  0  0  0  0  0  0  0  0
  105.6373   18.6237   12.4196 N   0  0  0  0  0  0  0  0  0  0  0  0
  104.6742   17.9734   12.9514 C   0  0  0  0  0  0  0  0  0  0  0  0
  1  2  1  0
  1  3  1  0
  4  2  1  6
  4  5  1  0
  5  6  1  0
  7  3  1  6
  4  7  1  0
  7  8  1  0
  6  9  1  0
  8  9  1  1
  8 10  1  0
 10 11  1  0
 11 12  1  0
 10 13  1  0
 11 14  1  1
 14 15  1  0
 16 13  1  1
 15 16  1  0
  3 17  1  0
 12 17  1  0
 15 18  1  0
 16 19  1  0
 18 20  1  0
 18 21  2  0
 19 22  1  0
 21 22  1  0
M  END
$$$$
85
     RDKit          3D

 22 25  0  0  0  0  0  0  0  0999 V2000
  108.9002   19.2792   21.6719 N   0  0  0  0  0  0  0  0  0  0  0  0
  109.2705   19.1264   20.4637 C   0  0  0  0  0  0  0  0  0  0  0  0
  107.5557   19.0244   21.9191 C   0  0  0  0  0  0  0  0  0  0  0  0
  106.7369   18.7709   20.7399 C   0  0  1  0  0  0  0  0  0  0  0  0
  107.0133   18.9894   23.2543 N   0  0  0  0  0  0  0  0  0  0  0  0
  107.1798   18.7462   19.5194 C   0  0  0  0  0  0  0  0  0  0  0  0
  108.5197   19.0249   19.2984 N   0  0  0  0  0  0  0  0  0  0  0  0
  105.3085   18.4346   21.0500 N   0  0  0  0  0  0  0  0  0  0  0  0
  106.2971   18.4989   18.4209 N   0  0  0  0  0  0  0  0  0  0  0  0
  106.5538   18.5711   17.0949 C   0  0  2  0  0  0  0  0  0  0  0  0
  104.9614   18.4765   18.5866 C   0  0  1  0  0  0  0  0  0  0  0  0
  104.3174   18.2076   17.3790 N   0  0  0  0  0  0  0  0  0  0  0  0
  107.7609   18.9099   16.5654 O   0  0  0  0  0  0  0  0  0  0  0  0
  105.3239   18.7928   16.3636 C   0  0  2  0  0  0  0  0  0  0  0  0
  102.9715   18.4569   17.1014 C   0  0  0  0  0  0  0  0  0  0  0  0
  104.5697   18.1101   19.8835 C   0  0  0  0  0  0  0  0  0  0  0  0
  102.3911   17.4411   16.1196 C   0  0  0  0  0  0  0  0  0  0  0  0
  105.2126   18.7802   14.9976 C   0  0  2  0  0  0  0  0  0  0  0  0
  103.4070   17.0304   15.2677 N   0  0  0  0  0  0  0  0  0  0  0  0
  104.0186   18.1592   14.4591 C   0  0  0  0  0  0  0  0  0  0  0  0
  107.8148   20.1640   15.9719 C   0  0  0  0  0  0  0  0  0  0  0  0
  106.3457   17.9922   14.4797 O   0  0  0  0  0  0  0  0  0  0  0  0
  1  2  1  0
  1  3  1  0
  3  4  1  0
  3  5  1  0
  4  6  1  0
  2  7  1  0
  6  7  1  0
  4  8  1  1
  6  9  1  0
  9 10  1  0
  9 11  1  0
 11 12  1  0
 10 13  1  1
 10 14  1  0
 14 12  1  1
 12 15  1  0
  8 16  1  0
 11 16  1  1
 15 17  1  0
 14 18  1  0
 17 19  1  0
 18 20  1  0
 19 20  1  0
 13 21  1  0
 18 22  1  6
M  END
$$$$
86
     RDKit          3D

 22 26  0  0  0  0  0  0  0  0999 V2000
  109.3736   19.7959   20.5107 C   0  0  0  0  0  0  0  0  0  0  0  0
  108.7626   19.6935   19.3488 N   0  0  0  0  0  0  0  0  0  0  0  0
  108.7098   19.3317   21.5964 N   0  0  0  0  0  0  0  0  0  0  0  0
  107.3404   18.9811   21.1786 C   0  0  0  0  0  0  0  0  0  0  0  0
  109.0728   19.8995   18.0210 C   0  0  0  0  0  0  0  0  0  0  0  0
  107.4545   19.1323   19.7864 C   0  0  0  0  0  0  0  0  0  0  0  0
  108.1303   19.6346   17.0522 C   0  0  0  0  0  0  0  0  0  0  0  0
  106.4675   18.8612   18.7554 C   0  0  2  0  0  0  0  0  0  0  0  0
  106.7682   19.1930   17.4653 C   0  0  2  0  0  0  0  0  0  0  0  0
  105.7699   18.9399   16.4230 N   0  0  0  0  0  0  0  0  0  0  0  0
  105.7914   19.1466   15.1132 C   0  0  2  0  0  0  0  0  0  0  0  0
  104.7670   17.9865   16.9707 C   0  0  2  0  0  0  0  0  0  0  0  0
  103.6935   17.8658   16.0524 C   0  0  0  0  0  0  0  0  0  0  0  0
  104.2980   18.3558   18.2956 C   0  0  0  0  0  0  0  0  0  0  0  0
  104.1056   17.9878   14.6549 C   0  0  0  0  0  0  0  0  0  0  0  0
  105.3004   18.5005   19.2759 N   0  0  0  0  0  0  0  0  0  0  0  0
  104.8542   19.0086   14.2755 C   0  0  2  0  0  0  0  0  0  0  0  0
  105.0438   19.2985   12.8212 C   0  0  1  0  0  0  0  0  0  0  0  0
  104.6404   20.5278   12.5537 O   0  0  0  0  0  0  0  0  0  0  0  0
  106.4939   19.1314   12.3744 C   0  0  0  0  0  0  0  0  0  0  0  0
  107.4804   19.4988   13.3255 C   0  0  0  0  0  0  0  0  0  0  0  0
  107.2348   19.5305   14.6860 C   0  0  0  0  0  0  0  0  0  0  0  0
  1  2  1  0
  1  3  1  0
  3  4  1  0
  2  5  1  0
  2  6  1  0
  4  6  1  0
  5  7  1  0
  6  8  1  0
  9  7  1  6
  8  9  1  0
  9 10  1  0
 10 11  1  0
 10 12  1  0
 12 13  1  6
 12 14  1  0
 13 15  1  0
  8 16  1  1
 14 16  1  0
 11 17  1  0
 17 15  1  6
 17 18  1  0
 18 19  1  1
 18 20  1  0
 20 21  1  0
 11 22  1  6
 21 22  1  0
M  END
$$$$
87
     RDKit          3D

 22 26  0  0  0  0  0  0  0  0999 V2000
  109.3736   19.7959   20.5107 C   0  0  0  0  0  0  0  0  0  0  0  0
  108.6827   19.2455   21.3427 C   0  0  0  0  0  0  0  0  0  0  0  0
  108.8334   19.5856   19.1364 N   0  0  0  0  0  0  0  0  0  0  0  0
  107.2273   18.9861   20.7869 C   0  0  2  0  0  0  0  0  0  0  0  0
  106.1144   18.4782   21.3004 C   0  0  0  0  0  0  0  0  0  0  0  0
  107.5800   18.9879   19.4057 C   0  0  1  0  0  0  0  0  0  0  0  0
  105.1031   18.1698   20.3703 N   0  0  0  0  0  0  0  0  0  0  0  0
  106.5780   18.6834   18.4637 C   0  0  1  0  0  0  0  0  0  0  0  0
  105.3232   18.3133   19.0313 C   0  0  1  0  0  0  0  0  0  0  0  0
  106.7014   18.8675   17.0369 N   0  0  0  0  0  0  0  0  0  0  0  0
  104.3923   17.9919   18.0043 N   0  0  0  0  0  0  0  0  0  0  0  0
  104.6881   18.1038   16.7361 C   0  0  0  0  0  0  0  0  0  0  0  0
  107.9351   19.4261   16.5973 C   0  0  0  0  0  0  0  0  0  0  0  0
  107.9610   19.9536   15.3992 C   0  0  0  0  0  0  0  0  0  0  0  0
  105.8132   18.5440   16.2075 C   0  0  0  0  0  0  0  0  0  0  0  0
  105.9405   18.6314   14.7621 C   0  0  2  0  0  0  0  0  0  0  0  0
  103.6395   17.6959   15.6362 C   0  0  2  0  0  0  0  0  0  0  0  0
  107.1521   19.3776   14.4337 N   0  0  0  0  0  0  0  0  0  0  0  0
  102.3156   17.2101   16.1653 C   0  0  0  0  0  0  0  0  0  0  0  0
  103.9607   17.6048   14.3950 C   0  0  0  0  0  0  0  0  0  0  0  0
  107.3089   19.6501   12.9869 C   0  0  0  0  0  0  0  0  0  0  0  0
  105.0924   18.2175   13.8890 N   0  0  0  0  0  0  0  0  0  0  0  0
  1  2  1  0
  1  3  1  0
  4  2  1  1
  4  5  1  0
  6  3  1  6
  4  6  1  0
  5  7  1  0
  6  8  1  0
  9  7  1  1
  8  9  1  0
  8 10  1  6
  9 11  1  0
 11 12  1  0
 10 13  1  0
 13 14  1  0
 10 15  1  0
 12 15  1  0
 15 16  1  0
 12 17  1  0
 14 18  1  0
 16 18  1  0
 17 19  1  1
 17 20  1  0
 18 21  1  0
 16 22  1  1
 20 22  1  0
M  END
$$$$
88
     RDKit          3D

 22 25  0  0  0  0  0  0  0  0999 V2000
  109.3736   19.7959   20.5107 C   0  0  0  0  0  0  0  0  0  0  0  0
  108.7626   19.6935   19.3488 N   0  0  0  0  0  0  0  0  0  0  0  0
  108.7098   19.3317   21.5964 N   0  0  0  0  0  0  0  0  0  0  0  0
  107.3404   18.9811   21.1786 C   0  0  1  0  0  0  0  0  0  0  0  0
  109.0728   19.8995   18.0210 C   0  0  0  0  0  0  0  0  0  0  0  0
  107.4545   19.1323   19.7864 C   0  0  0  0  0  0  0  0  0  0  0  0
  108.1303   19.6346   17.0522 C   0  0  2  0  0  0  0  0  0  0  0  0
  106.4675   18.8612   18.7554 C   0  0  0  0  0  0  0  0  0  0  0  0
  106.3583   18.3519   21.7286 N   0  0  0  0  0  0  0  0  0  0  0  0
  108.2950   19.8592   15.7139 N   0  0  0  0  0  0  0  0  0  0  0  0
  107.4525   20.2305   14.8587 C   0  0  1  0  0  0  0  0  0  0  0  0
  106.7752   19.1286   17.4787 C   0  0  2  0  0  0  0  0  0  0  0  0
  107.7854   20.2741   13.4891 C   0  0  0  0  0  0  0  0  0  0  0  0
  106.2091   19.1868   14.9365 C   0  0  1  0  0  0  0  0  0  0  0  0
  106.7629   20.4568   12.5745 N   0  0  0  0  0  0  0  0  0  0  0  0
  105.7528   18.8503   16.4621 N   0  0  0  0  0  0  0  0  0  0  0  0
  104.9911   19.6075   14.1742 C   0  0  1  0  0  0  0  0  0  0  0  0
  104.0026   18.5204   14.1077 C   0  0  2  0  0  0  0  0  0  0  0  0
  104.4386   20.9092   14.6463 C   0  0  0  0  0  0  0  0  0  0  0  0
  105.6965   19.8462   12.7599 C   0  0  0  0  0  0  0  0  0  0  0  0
  102.8176   18.7748   14.6335 C   0  0  0  0  0  0  0  0  0  0  0  0
  104.5307   17.1281   14.4719 N   0  0  0  0  0  0  0  0  0  0  0  0
  1  2  1  0
  1  3  1  0
  3  4  1  0
  2  5  1  0
  2  6  1  0
  4  6  1  0
  7  5  1  1
  6  8  1  0
  4  9  1  6
  7 10  1  0
 10 11  1  0
  7 12  1  0
 12  8  1  6
 11 13  1  6
 11 14  1  0
 13 15  1  0
 12 16  1  0
 14 16  1  1
 14 17  1  0
 17 18  1  0
 17 19  1  1
 15 20  1  0
 17 20  1  0
 18 21  1  1
 18 22  1  0
M  END
$$$$
89
     RDKit          3D

 22 26  0  0  0  0  0  0  0  0999 V2000
  108.9002   19.2792   21.6719 N   0  0  0  0  0  0  0  0  0  0  0  0
  109.2705   19.1264   20.4637 C   0  0  0  0  0  0  0  0  0  0  0  0
  107.5557   19.0244   21.9191 C   0  0  0  0  0  0  0  0  0  0  0  0
  106.7369   18.7709   20.7399 C   0  0  1  0  0  0  0  0  0  0  0  0
  107.0133   18.9894   23.2543 N   0  0  0  0  0  0  0  0  0  0  0  0
  107.1798   18.7462   19.5194 C   0  0  0  0  0  0  0  0  0  0  0  0
  108.5197   19.0249   19.2984 N   0  0  0  0  0  0  0  0  0  0  0  0
  105.3085   18.4346   21.0500 N   0  0  0  0  0  0  0  0  0  0  0  0
  106.2971   18.4989   18.4209 N   0  0  0  0  0  0  0  0  0  0  0  0
  106.5538   18.5711   17.0949 C   0  0  2  0  0  0  0  0  0  0  0  0
  104.9614   18.4765   18.5866 C   0  0  1  0  0  0  0  0  0  0  0  0
  104.3174   18.2076   17.3790 N   0  0  0  0  0  0  0  0  0  0  0  0
  107.7609   18.9099   16.5654 O   0  0  0  0  0  0  0  0  0  0  0  0
  105.3239   18.7928   16.3636 C   0  0  2  0  0  0  0  0  0  0  0  0
  102.9715   18.4569   17.1014 C   0  0  0  0  0  0  0  0  0  0  0  0
  104.5697   18.1101   19.8835 C   0  0  0  0  0  0  0  0  0  0  0  0
  102.3911   17.4411   16.1196 C   0  0  0  0  0  0  0  0  0  0  0  0
  105.2126   18.7802   14.9976 C   0  0  0  0  0  0  0  0  0  0  0  0
  103.4070   17.0304   15.2677 N   0  0  0  0  0  0  0  0  0  0  0  0
  104.0186   18.1592   14.4591 C   0  0  0  0  0  0  0  0  0  0  0  0
  107.6193   19.9548   15.5396 C   0  0  0  0  0  0  0  0  0  0  0  0
  106.4303   19.4710   14.4826 C   0  0  0  0  0  0  0  0  0  0  0  0
  1  2  1  0
  1  3  1  0
  3  4  1  0
  3  5  1  0
  4  6  1  0
  2  7  1  0
  6  7  1  0
  4  8  1  1
  6  9  1  0
  9 10  1  0
  9 11  1  0
 11 12  1  0
 10 13  1  1
 10 14  1  0
 12 14  1  0
 12 15  1  0
  8 16  1  0
 11 16  1  1
 15 17  1  0
 14 18  1  6
 17 19  1  0
 18 20  1  0
 19 20  1  0
 13 21  1  0
 18 22  1  0
 21 22  1  0
M  END
$$$$
9
     RDKit          3D

 16 17  0  0  0  0  0  0  0  0999 V2000
  105.3101   17.7342   13.5023 N   0  0  0  0  0  0  0  0  0  0  0  0
  106.1181   18.6849   13.6192 C   0  0  0  0  0  0  0  0  0  0  0  0
  106.1719   19.4377   14.7543 C   0  0  2  0  0  0  0  0  0  0  0  0
  107.2456   19.3609   12.6428 C   0  0  2  0  0  0  0  0  0  0  0  0
  107.4332   18.7425   11.3966 O   0  0  0  0  0  0  0  0  0  0  0  0
  107.0675   20.4009   15.0909 N   0  0  0  0  0  0  0  0  0  0  0  0
  105.1327   18.9801   15.6923 C   0  0  0  0  0  0  0  0  0  0  0  0
  108.0122   20.3923   13.0311 C   0  0  0  0  0  0  0  0  0  0  0  0
  104.3047   17.4819   14.2203 C   0  0  0  0  0  0  0  0  0  0  0  0
  107.9314   20.8543   14.2707 C   0  0  0  0  0  0  0  0  0  0  0  0
  104.2255   18.0949   15.4261 C   0  0  0  0  0  0  0  0  0  0  0  0
  107.0340   19.5213   10.3253 C   0  0  0  0  0  0  0  0  0  0  0  0
  103.1384   17.7985   16.5022 C   0  0  0  0  0  0  0  0  0  0  0  0
  103.4131   17.0130   17.3885 C   0  0  0  0  0  0  0  0  0  0  0  0
  102.8481   17.1798   18.5810 O   0  0  0  0  0  0  0  0  0  0  0  0
  104.4744   16.1939   17.5328 O   0  0  0  0  0  0  0  0  0  0  0  0
  1  2  1  0
  2  3  1  0
  2  4  1  0
  4  5  1  1
  3  6  1  0
  3  7  1  1
  4  8  1  0
  1  9  1  0
  6 10  1  0
  8 10  1  0
  7 11  1  0
  9 11  1  0
  5 12  1  0
 11 13  1  0
 13 14  1  0
 14 15  1  0
 14 16  2  0
M  END
$$$$
90
     RDKit          3D

 22 24  0  0  0  0  0  0  0  0999 V2000
  102.5147   18.4759   19.0630 O   0  0  0  0  0  0  0  0  0  0  0  0
  103.3288   18.6611   18.3343 C   0  0  1  0  0  0  0  0  0  0  0  0
  104.6362   18.0469   18.6686 C   0  0  0  0  0  0  0  0  0  0  0  0
  105.7502   18.4214   17.7949 C   0  0  0  0  0  0  0  0  0  0  0  0
  103.2164   19.1085   17.0022 C   0  0  0  0  0  0  0  0  0  0  0  0
  105.5790   19.0372   16.5752 C   0  0  2  0  0  0  0  0  0  0  0  0
  107.1565   18.0122   18.4674 O   0  0  0  0  0  0  0  0  0  0  0  0
  104.2447   19.1492   16.2007 C   0  0  0  0  0  0  0  0  0  0  0  0
  106.7657   19.1124   15.7078 C   0  0  0  0  0  0  0  0  0  0  0  0
  107.5567   19.1124   19.2989 C   0  0  0  0  0  0  0  0  0  0  0  0
  108.3276   18.6380   20.2627 C   0  0  0  0  0  0  0  0  0  0  0  0
  107.8038   19.7573   16.1160 N   0  0  0  0  0  0  0  0  0  0  0  0
  106.5129   19.0237   14.2757 C   0  0  2  0  0  0  0  0  0  0  0  0
  107.9350   19.2186   21.5544 C   0  0  0  0  0  0  0  0  0  0  0  0
  108.7782   20.2003   15.5208 N   0  0  0  0  0  0  0  0  0  0  0  0
  109.7737   19.3541   20.1382 C   0  0  0  0  0  0  0  0  0  0  0  0
  105.6023   18.2620   13.6205 C   0  0  0  0  0  0  0  0  0  0  0  0
  107.5697   19.5823   13.5305 C   0  0  1  0  0  0  0  0  0  0  0  0
  108.7184   20.1451   14.1497 C   0  0  0  0  0  0  0  0  0  0  0  0
  107.4787   19.4283   12.0531 C   0  0  0  0  0  0  0  0  0  0  0  0
  105.5511   18.0473   12.3205 N   0  0  0  0  0  0  0  0  0  0  0  0
  106.4139   18.7000   11.5535 C   0  0  0  0  0  0  0  0  0  0  0  0
  2  1  1  6
  2  3  1  0
  3  4  1  0
  2  5  1  0
  4  6  1  0
  4  7  1  0
  5  8  1  0
  6  8  1  0
  6  9  1  6
  7 10  1  0
 10 11  1  0
  9 12  2  0
  9 13  1  0
 11 14  1  0
 12 15  1  0
 11 16  1  0
 13 17  1  6
 13 18  1  0
 15 19  1  0
 18 19  1  1
 18 20  1  0
 17 21  1  0
 20 22  1  0
 21 22  1  0
M  END
$$$$
91
     RDKit          3D

 22 23  0  0  0  0  0  0  0  0999 V2000
  105.1332   17.7669   13.0273 O   0  0  0  0  0  0  0  0  0  0  0  0
  104.6573   17.8659   14.1194 C   0  0  0  0  0  0  0  0  0  0  0  0
  103.6414   17.2032   14.4768 N   0  0  0  0  0  0  0  0  0  0  0  0
  105.1169   19.0235   14.9761 N   0  0  0  0  0  0  0  0  0  0  0  0
  104.5644   19.1357   16.2073 C   0  0  0  0  0  0  0  0  0  0  0  0
  106.1683   20.0605   14.6559 C   0  0  0  0  0  0  0  0  0  0  0  0
  105.8882   20.8400   13.6871 C   0  0  0  0  0  0  0  0  0  0  0  0
  104.8252   17.8893   17.0280 C   0  0  1  0  0  0  0  0  0  0  0  0
  107.3457   19.8349   15.3429 C   0  0  0  0  0  0  0  0  0  0  0  0
  108.3835   20.6841   15.0307 C   0  0  0  0  0  0  0  0  0  0  0  0
  108.2054   21.5253   14.0563 C   0  0  0  0  0  0  0  0  0  0  0  0
  106.9863   21.7290   13.3462 C   0  0  0  0  0  0  0  0  0  0  0  0
  105.3788   18.2017   18.3624 C   0  0  2  0  0  0  0  0  0  0  0  0
  103.5527   17.1578   17.4410 C   0  0  0  0  0  0  0  0  0  0  0  0
  106.8039   18.4097   18.3871 N   0  0  0  0  0  0  0  0  0  0  0  0
  103.6903   16.6040   18.7803 N   0  0  0  0  0  0  0  0  0  0  0  0
  104.8913   17.3266   19.3752 C   0  0  0  0  0  0  0  0  0  0  0  0
  107.4169   19.0048   19.3732 C   0  0  0  0  0  0  0  0  0  0  0  0
  106.8977   19.2558   20.5263 O   0  0  0  0  0  0  0  0  0  0  0  0
  108.8755   19.5051   19.1555 C   0  0  0  0  0  0  0  0  0  0  0  0
  109.1008   20.4830   18.3918 N   0  0  0  0  0  0  0  0  0  0  0  0
  109.6100   19.7808   20.4741 N   0  0  0  0  0  0  0  0  0  0  0  0
  1  2  2  0
  2  3  1  0
  2  4  1  0
  4  5  1  0
  4  6  1  0
  6  7  1  0
  8  5  1  6
  6  9  1  0
  9 10  1  0
 10 11  1  0
  7 12  1  0
 11 12  1  0
  8 13  1  0
  8 14  1  0
 13 15  1  6
 14 16  1  0
 13 17  1  0
 16 17  1  0
 15 18  1  0
 18 19  2  0
 18 20  1  0
 20 21  1  0
 20 22  1  0
M  END
$$$$
92
     RDKit          3D

 22 25  0  0  0  0  0  0  0  0999 V2000
  110.2751   18.3457   20.1327 N   0  0  0  0  0  0  0  0  0  0  0  0
  109.5386   19.2265   20.2534 C   0  0  0  0  0  0  0  0  0  0  0  0
  109.8783   20.4450   20.2804 O   0  0  0  0  0  0  0  0  0  0  0  0
  108.0443   18.9023   20.3796 C   0  0  1  0  0  0  0  0  0  0  0  0
  107.4419   18.7474   21.4972 C   0  0  0  0  0  0  0  0  0  0  0  0
  107.1758   19.1336   19.1951 C   0  0  1  0  0  0  0  0  0  0  0  0
  107.6788   19.2427   17.8532 C   0  0  0  0  0  0  0  0  0  0  0  0
  105.8580   18.7719   19.4091 C   0  0  1  0  0  0  0  0  0  0  0  0
  106.0882   18.5247   21.6783 C   0  0  0  0  0  0  0  0  0  0  0  0
  105.2867   18.5079   20.6086 N   0  0  0  0  0  0  0  0  0  0  0  0
  104.9625   18.7488   18.2358 C   0  0  2  0  0  0  0  0  0  0  0  0
  103.5754   18.3670   18.3808 C   0  0  0  0  0  0  0  0  0  0  0  0
  105.4849   18.8920   16.9027 C   0  0  2  0  0  0  0  0  0  0  0  0
  106.8628   19.1962   16.7394 C   0  0  0  0  0  0  0  0  0  0  0  0
  103.2186   17.0728   18.0932 C   0  0  0  0  0  0  0  0  0  0  0  0
  104.6034   18.8053   15.6010 C   0  0  2  0  0  0  0  0  0  0  0  0
  102.5587   16.8969   16.8270 C   0  0  0  0  0  0  0  0  0  0  0  0
  104.0320   17.4911   15.3805 N   0  0  0  0  0  0  0  0  0  0  0  0
  103.0369   17.0371   15.6710 N   0  0  0  0  0  0  0  0  0  0  0  0
  104.5142   17.2138   13.9053 N   0  0  0  0  0  0  0  0  0  0  0  0
  105.3709   18.0735   13.3453 C   0  0  0  0  0  0  0  0  0  0  0  0
  105.4149   19.2844   14.3436 C   0  0  0  0  0  0  0  0  0  0  0  0
  1  2  1  0
  2  3  2  0
  4  2  1  1
  4  5  1  0
  4  6  1  0
  6  7  1  6
  6  8  1  0
  5  9  1  0
  8 10  1  1
  9 10  1  0
  8 11  1  0
 11 12  1  6
 11 13  1  0
  7 14  1  0
 13 14  1  1
 12 15  1  0
 13 16  1  0
 15 17  1  0
 16 18  1  0
 17 19  1  0
 18 19  1  0
 18 20  1  0
 20 21  1  0
 16 22  1  6
 21 22  1  0
M  END
$$$$
93
     RDKit          3D

 22 25  0  0  0  0  0  0  0  0999 V2000
  109.9463   19.0478   20.8751 N   0  0  0  0  0  0  0  0  0  0  0  0
  109.6102   19.0502   19.5803 N   0  0  0  0  0  0  0  0  0  0  0  0
  108.2036   19.0450   19.3916 C   0  0  0  0  0  0  0  0  0  0  0  0
  108.7813   19.1577   21.6491 C   0  0  0  0  0  0  0  0  0  0  0  0
  107.5581   19.0473   20.6870 C   0  0  2  0  0  0  0  0  0  0  0  0
  107.5274   19.0014   18.0663 C   0  0  0  0  0  0  0  0  0  0  0  0
  106.1870   18.8511   18.0051 C   0  0  0  0  0  0  0  0  0  0  0  0
  106.1648   18.8340   20.5262 C   0  0  0  0  0  0  0  0  0  0  0  0
  105.4923   18.7409   19.3259 C   0  0  0  0  0  0  0  0  0  0  0  0
  105.4953   18.8115   16.7901 N   0  0  0  0  0  0  0  0  0  0  0  0
  104.3401   18.1311   16.5872 C   0  0  0  0  0  0  0  0  0  0  0  0
  106.2736   18.7356   15.4970 C   0  0  2  0  0  0  0  0  0  0  0  0
  106.9213   19.9948   15.2603 C   0  0  0  0  0  0  0  0  0  0  0  0
  105.7765   18.0673   14.3881 C   0  0  2  0  0  0  0  0  0  0  0  0
  107.2293   20.3801   14.1971 C   0  0  0  0  0  0  0  0  0  0  0  0
  106.1708   18.4334   13.1014 C   0  0  0  0  0  0  0  0  0  0  0  0
  104.0243   17.5489   15.4161 C   0  0  0  0  0  0  0  0  0  0  0  0
  106.9300   19.6095   12.9276 C   0  0  1  0  0  0  0  0  0  0  0  0
  107.2159   20.0712   11.5397 C   0  0  0  0  0  0  0  0  0  0  0  0
  104.7290   17.2494   14.4136 N   0  0  0  0  0  0  0  0  0  0  0  0
  107.3509   19.1966   10.6087 O   0  0  0  0  0  0  0  0  0  0  0  0
  107.2005   21.3603   11.3323 O   0  0  0  0  0  0  0  0  0  0  0  0
  1  2  1  0
  2  3  1  0
  1  4  1  0
  3  5  1  0
  5  4  1  1
  3  6  1  0
  6  7  1  0
  5  8  1  0
  7  9  1  0
  8  9  1  0
  7 10  1  0
 10 11  1  0
 10 12  1  0
 12 13  1  6
 12 14  1  0
 13 15  1  0
 14 16  1  6
 11 17  1  0
 15 18  1  0
 16 18  1  0
 18 19  1  6
 14 20  1  0
 17 20  1  0
 19 21  2  0
 19 22  1  0
M  END
$$$$
94
     RDKit          3D

 22 24  0  0  0  0  0  0  0  0999 V2000
  109.9463   19.0478   20.8751 N   0  0  0  0  0  0  0  0  0  0  0  0
  109.6102   19.0502   19.5803 C   0  0  2  0  0  0  0  0  0  0  0  0
  108.8419   19.1241   21.7169 C   0  0  0  0  0  0  0  0  0  0  0  0
  110.3730   19.1604   18.5394 N   0  0  0  0  0  0  0  0  0  0  0  0
  108.0663   19.0296   19.2822 C   0  0  1  0  0  0  0  0  0  0  0  0
  107.7198   18.9496   17.8776 N   0  0  0  0  0  0  0  0  0  0  0  0
  107.0829   18.9017   20.1541 C   0  0  0  0  0  0  0  0  0  0  0  0
  107.4989   18.9493   21.3577 N   0  0  0  0  0  0  0  0  0  0  0  0
  106.0129   18.8287   19.3581 N   0  0  0  0  0  0  0  0  0  0  0  0
  104.7141   18.5612   19.8358 C   0  0  0  0  0  0  0  0  0  0  0  0
  108.2696   19.3417   16.7024 C   0  0  0  0  0  0  0  0  0  0  0  0
  106.3419   18.8237   18.0327 C   0  0  2  0  0  0  0  0  0  0  0  0
  104.1161   17.4896   19.0025 C   0  0  0  0  0  0  0  0  0  0  0  0
  105.3694   18.5754   16.9372 C   0  0  1  0  0  0  0  0  0  0  0  0
  105.6474   18.6609   15.6880 O   0  0  0  0  0  0  0  0  0  0  0  0
  104.6417   18.8720   14.6773 C   0  0  1  0  0  0  0  0  0  0  0  0
  104.3875   17.4487   17.4079 C   0  0  0  0  0  0  0  0  0  0  0  0
  104.6709   20.0017   14.0030 C   0  0  0  0  0  0  0  0  0  0  0  0
  104.8200   17.5909   13.7041 C   0  0  0  0  0  0  0  0  0  0  0  0
  104.3738   16.5574   14.0115 O   0  0  0  0  0  0  0  0  0  0  0  0
  103.7331   20.8894   14.0548 O   0  0  0  0  0  0  0  0  0  0  0  0
  105.7121   20.3249   13.1468 O   0  0  0  0  0  0  0  0  0  0  0  0
  1  2  1  0
  1  3  1  0
  2  4  1  6
  2  5  1  0
  5  6  1  6
  5  7  1  0
  3  8  1  0
  7  8  1  0
  7  9  1  0
  9 10  1  0
  6 11  1  0
 12  6  1  1
  9 12  1  0
 10 13  1  0
 12 14  1  0
 14 15  1  6
 15 16  1  0
 13 17  1  0
 14 17  1  0
 16 18  1  0
 16 19  1  6
 19 20  1  0
 18 21  1  0
 18 22  2  0
M  END
$$$$
95
     RDKit          3D

 22 25  0  0  0  0  0  0  0  0999 V2000
  109.9463   19.0478   20.8751 N   0  0  0  0  0  0  0  0  0  0  0  0
  109.6102   19.0502   19.5803 N   0  0  0  0  0  0  0  0  0  0  0  0
  108.2036   19.0450   19.3916 C   0  0  0  0  0  0  0  0  0  0  0  0
  108.7813   19.1577   21.6491 C   0  0  0  0  0  0  0  0  0  0  0  0
  107.5581   19.0473   20.6870 C   0  0  2  0  0  0  0  0  0  0  0  0
  107.5274   19.0014   18.0663 C   0  0  0  0  0  0  0  0  0  0  0  0
  106.1870   18.8511   18.0051 C   0  0  0  0  0  0  0  0  0  0  0  0
  105.5212   18.7615   16.7980 N   0  0  0  0  0  0  0  0  0  0  0  0
  106.1358   18.8997   15.5897 C   0  0  2  0  0  0  0  0  0  0  0  0
  104.1868   18.1348   16.9678 C   0  0  2  0  0  0  0  0  0  0  0  0
  105.3724   18.7391   19.2027 C   0  0  0  0  0  0  0  0  0  0  0  0
  106.0539   18.8771   20.4976 C   0  0  0  0  0  0  0  0  0  0  0  0
  103.5004   18.1625   15.5636 C   0  0  0  0  0  0  0  0  0  0  0  0
  106.7365   20.1102   15.3574 O   0  0  0  0  0  0  0  0  0  0  0  0
  103.3611   18.7046   17.8986 C   0  0  0  0  0  0  0  0  0  0  0  0
  105.7468   18.3519   14.2893 C   0  0  0  0  0  0  0  0  0  0  0  0
  104.0518   18.5327   19.2035 N   0  0  0  0  0  0  0  0  0  0  0  0
  107.9236   20.0700   14.7783 C   0  0  0  0  0  0  0  0  0  0  0  0
  108.7306   21.3008   14.8447 C   0  0  0  0  0  0  0  0  0  0  0  0
  104.4276   17.6518   14.4125 C   0  0  0  0  0  0  0  0  0  0  0  0
  109.1507   21.7845   13.6672 O   0  0  0  0  0  0  0  0  0  0  0  0
  104.1562   16.8355   13.5945 O   0  0  0  0  0  0  0  0  0  0  0  0
  1  2  1  0
  2  3  1  0
  1  4  1  0
  3  5  1  0
  5  4  1  1
  3  6  1  0
  6  7  1  0
  7  8  1  0
  8  9  1  0
  8 10  1  0
  7 11  1  0
  5 12  1  0
 11 12  1  0
 10 13  1  6
  9 14  1  6
 10 15  1  0
  9 16  1  0
 11 17  1  0
 15 17  1  0
 14 18  1  0
 18 19  1  0
 13 20  1  0
 16 20  1  0
 19 21  1  0
 20 22  2  0
M  END
$$$$
96
     RDKit          3D

 23 25  0  0  0  0  0  0  0  0999 V2000
  105.3101   17.7342   13.5023 C   0  0  0  0  0  0  0  0  0  0  0  0
  105.9814   18.9010   13.7073 C   0  0  0  0  0  0  0  0  0  0  0  0
  106.8420   19.4696   12.7677 C   0  0  0  0  0  0  0  0  0  0  0  0
  105.6478   19.4795   14.9881 C   0  0  1  0  0  0  0  0  0  0  0  0
  104.8255   18.8942   15.8902 C   0  0  0  0  0  0  0  0  0  0  0  0
  107.9589   20.1893   13.2897 C   0  0  1  0  0  0  0  0  0  0  0  0
  104.5879   19.3469   17.2367 O   0  0  0  0  0  0  0  0  0  0  0  0
  104.4511   17.0759   14.2572 N   0  0  0  0  0  0  0  0  0  0  0  0
  104.8889   18.2846   18.2022 C   0  0  2  0  0  0  0  0  0  0  0  0
  108.9332   20.6851   12.3670 C   0  0  0  0  0  0  0  0  0  0  0  0
  105.3516   18.7305   19.2464 C   0  0  0  0  0  0  0  0  0  0  0  0
  105.7712   17.2907   17.5087 C   0  0  0  0  0  0  0  0  0  0  0  0
  110.0035   21.2772   12.8618 N   0  0  0  0  0  0  0  0  0  0  0  0
  106.8520   18.6797   19.2705 N   0  0  0  0  0  0  0  0  0  0  0  0
  104.0542   17.6346   15.4158 C   0  0  0  0  0  0  0  0  0  0  0  0
  107.6734   19.0590   20.2024 C   0  0  0  0  0  0  0  0  0  0  0  0
  108.9422   20.4572   11.0458 O   0  0  0  0  0  0  0  0  0  0  0  0
  107.8555   20.6204   14.5524 C   0  0  0  0  0  0  0  0  0  0  0  0
  109.0736   19.3098   19.9082 C   0  0  0  0  0  0  0  0  0  0  0  0
  106.7524   20.1882   15.3067 N   0  0  0  0  0  0  0  0  0  0  0  0
  109.3248   20.2619   19.3222 N   0  0  0  0  0  0  0  0  0  0  0  0
  107.3457   18.2803   18.0067 C   0  0  0  0  0  0  0  0  0  0  0  0
  110.0030   18.4943   20.4010 O   0  0  0  0  0  0  0  0  0  0  0  0
  1  2  1  0
  2  3  1  0
  2  4  1  0
  4  5  1  0
  3  6  1  0
  5  7  1  0
  1  8  1  0
  9  7  1  6
  6 10  1  6
  9 11  1  0
  9 12  1  0
 10 13  1  0
 11 14  1  0
  5 15  1  0
  8 15  1  0
 14 16  1  0
 10 17  2  0
  6 18  1  0
 16 19  1  0
  4 20  1  1
 18 20  1  0
 19 21  1  0
 12 22  1  0
 14 22  1  0
 19 23  2  0
M  END
$$$$
97
     RDKit          3D

 23 26  0  0  0  0  0  0  0  0999 V2000
  109.6773   19.2469   21.0007 N   0  0  0  0  0  0  0  0  0  0  0  0
  108.8675   19.4096   20.1662 C   0  0  0  0  0  0  0  0  0  0  0  0
  108.1492   19.5697   18.9636 C   0  0  2  0  0  0  0  0  0  0  0  0
  106.9369   18.8892   18.8669 C   0  0  0  0  0  0  0  0  0  0  0  0
  106.3019   18.8594   17.5815 C   0  0  0  0  0  0  0  0  0  0  0  0
  108.8228   20.2765   17.8279 C   0  0  0  0  0  0  0  0  0  0  0  0
  106.1530   18.1765   19.9235 C   0  0  1  0  0  0  0  0  0  0  0  0
  106.3860   18.3873   21.2529 O   0  0  0  0  0  0  0  0  0  0  0  0
  108.1545   20.2341   16.5873 C   0  0  0  0  0  0  0  0  0  0  0  0
  106.9331   19.4950   16.4451 C   0  0  2  0  0  0  0  0  0  0  0  0
  105.0464   17.4281   19.5107 N   0  0  0  0  0  0  0  0  0  0  0  0
  106.3302   19.5362   14.9746 C   0  0  1  0  0  0  0  0  0  0  0  0
  105.4888   19.0526   22.0083 C   0  0  0  0  0  0  0  0  0  0  0  0
  105.0187   18.2320   17.3183 C   0  0  1  0  0  0  0  0  0  0  0  0
  105.1836   18.6414   14.8557 N   0  0  0  0  0  0  0  0  0  0  0  0
  104.4864   18.1901   15.9960 C   0  0  0  0  0  0  0  0  0  0  0  0
  104.6436   18.5013   13.5033 C   0  0  0  0  0  0  0  0  0  0  0  0
  104.4211   17.4727   18.3366 C   0  0  0  0  0  0  0  0  0  0  0  0
  105.0499   19.3528   12.7114 O   0  0  0  0  0  0  0  0  0  0  0  0
  105.3330   20.6418   13.0371 C   0  0  0  0  0  0  0  0  0  0  0  0
  103.9702   17.4571   13.5060 O   0  0  0  0  0  0  0  0  0  0  0  0
  106.0754   20.8058   14.3725 C   0  0  0  0  0  0  0  0  0  0  0  0
  105.1537   21.6219   12.2417 O   0  0  0  0  0  0  0  0  0  0  0  0
  1  2  3  0
  3  2  1  6
  3  4  1  0
  4  5  1  0
  3  6  1  0
  4  7  1  0
  7  8  1  1
  6  9  1  0
  5 10  1  0
 10  9  1  1
  7 11  1  0
 10 12  1  0
  8 13  1  0
  5 14  1  0
 12 15  1  0
 14 16  1  6
 15 16  1  0
 15 17  1  0
 11 18  1  0
 14 18  1  0
 17 19  1  0
 19 20  1  0
 17 21  2  0
 12 22  1  1
 20 22  1  0
 20 23  2  0
M  END
$$$$
98
     RDKit          3D

 23 27  0  0  0  0  0  0  0  0999 V2000
  109.3736   19.7959   20.5107 C   0  0  0  0  0  0  0  0  0  0  0  0
  108.6827   19.2455   21.3427 C   0  0  0  0  0  0  0  0  0  0  0  0
  108.8334   19.5856   19.1364 N   0  0  0  0  0  0  0  0  0  0  0  0
  107.2273   18.9861   20.7869 C   0  0  2  0  0  0  0  0  0  0  0  0
  106.1144   18.4782   21.3004 N   0  0  0  0  0  0  0  0  0  0  0  0
  105.1237   18.2174   20.5596 C   0  0  0  0  0  0  0  0  0  0  0  0
  107.3343   19.1891   19.4015 C   0  0  2  0  0  0  0  0  0  0  0  0
  106.3502   18.8344   18.5377 C   0  0  1  0  0  0  0  0  0  0  0  0
  105.1990   18.3997   19.1554 N   0  0  0  0  0  0  0  0  0  0  0  0
  106.3656   19.0030   17.1569 N   0  0  0  0  0  0  0  0  0  0  0  0
  107.4311   19.5126   16.4701 C   0  0  2  0  0  0  0  0  0  0  0  0
  108.5714   19.7090   16.9012 O   0  0  0  0  0  0  0  0  0  0  0  0
  105.1945   18.6349   16.4252 C   0  0  0  0  0  0  0  0  0  0  0  0
  107.2780   20.3096   15.2499 C   0  0  0  0  0  0  0  0  0  0  0  0
  106.1409   19.7621   14.4427 N   0  0  0  0  0  0  0  0  0  0  0  0
  105.0925   19.0962   15.1335 C   0  0  1  0  0  0  0  0  0  0  0  0
  109.2284   19.8495   18.0917 C   0  0  0  0  0  0  0  0  0  0  0  0
  106.4520   19.4910   13.1411 C   0  0  0  0  0  0  0  0  0  0  0  0
  104.3606   17.9979   14.2891 C   0  0  1  0  0  0  0  0  0  0  0  0
  105.6872   18.6159   12.4071 N   0  0  0  0  0  0  0  0  0  0  0  0
  103.3192   17.4178   14.8786 C   0  0  0  0  0  0  0  0  0  0  0  0
  107.3749   20.2471   12.4972 O   0  0  0  0  0  0  0  0  0  0  0  0
  104.7636   17.9290   13.0973 N   0  0  0  0  0  0  0  0  0  0  0  0
  1  2  1  0
  1  3  1  0
  4  2  1  6
  4  5  1  0
  5  6  1  0
  7  3  1  6
  4  7  1  0
  7  8  1  0
  6  9  1  0
  8  9  1  1
  8 10  1  0
 10 11  1  0
 11 12  1  0
 10 13  1  0
 11 14  1  1
 14 15  1  0
 16 13  1  1
 15 16  1  0
  3 17  1  0
 12 17  1  0
 15 18  1  0
 16 19  1  0
 18 20  1  0
 19 21  1  6
 18 22  2  0
 19 23  1  0
 20 23  1  0
M  END
$$$$
99
     RDKit          3D

 23 27  0  0  0  0  0  0  0  0999 V2000
  110.0053   18.8959   20.6904 N   0  0  0  0  0  0  0  0  0  0  0  0
  109.5367   19.3102   19.5323 C   0  0  0  0  0  0  0  0  0  0  0  0
  108.0837   19.2454   19.2707 C   0  0  1  0  0  0  0  0  0  0  0  0
  108.8425   18.7867   21.5600 C   0  0  0  0  0  0  0  0  0  0  0  0
  107.6172   19.3622   17.8783 C   0  0  1  0  0  0  0  0  0  0  0  0
  107.2346   18.9035   20.2466 C   0  0  1  0  0  0  0  0  0  0  0  0
  108.4311   19.6865   16.8065 N   0  0  0  0  0  0  0  0  0  0  0  0
  106.3239   19.0267   17.6438 C   0  0  0  0  0  0  0  0  0  0  0  0
  105.9406   19.1059   16.2655 N   0  0  0  0  0  0  0  0  0  0  0  0
  107.6007   18.7572   21.4700 N   0  0  0  0  0  0  0  0  0  0  0  0
  106.9158   19.5049   15.4005 C   0  0  0  0  0  0  0  0  0  0  0  0
  104.5351   18.7132   15.7938 C   0  0  1  0  0  0  0  0  0  0  0  0
  106.3947   19.5755   13.9993 N   0  0  0  0  0  0  0  0  0  0  0  0
  105.2843   18.8911   13.6068 C   0  0  0  0  0  0  0  0  0  0  0  0
  108.1821   19.7854   15.6862 C   0  0  0  0  0  0  0  0  0  0  0  0
  107.1393   20.4364   13.2437 C   0  0  0  0  0  0  0  0  0  0  0  0
  105.5029   18.6111   18.7428 C   0  0  2  0  0  0  0  0  0  0  0  0
  105.1762   18.8227   12.4591 O   0  0  0  0  0  0  0  0  0  0  0  0
  104.0755   18.2178   18.4392 C   0  0  0  0  0  0  0  0  0  0  0  0
  104.4574   18.2889   14.5271 C   0  0  2  0  0  0  0  0  0  0  0  0
  103.3933   17.5100   14.1047 C   0  0  0  0  0  0  0  0  0  0  0  0
  105.8241   18.7504   20.0585 N   0  0  0  0  0  0  0  0  0  0  0  0
  103.9291   17.7051   16.9011 C   0  0  0  0  0  0  0  0  0  0  0  0
  1  2  1  0
  3  2  1  6
  1  4  1  0
  3  5  1  0
  3  6  1  0
  5  7  1  6
  5  8  1  0
  8  9  1  0
  4 10  1  0
  6 10  1  1
  9 11  1  0
  9 12  1  0
 11 13  1  0
 13 14  1  0
  7 15  1  0
 11 15  1  0
 13 16  1  0
  8 17  1  0
 14 18  2  0
 17 19  1  1
 12 20  1  0
 14 20  1  0
 20 21  1  6
  6 22  1  0
 17 22  1  0
 12 23  1  1
 19 23  1  0
M  END
$$$$
