0
     RDKit          3D

  5  4  0  0  0  0  0  0  0  0999 V2000
   73.4348   -3.4507   98.7889 N   0  0  0  0  0  0  0  0  0  0  0  0
   72.8990   -3.3421   99.6002 C   0  0  0  0  0  0  0  0  0  0  0  0
   71.9820   -3.3347  100.7807 C   0  0  0  0  0  0  0  0  0  0  0  0
   71.7745   -4.3538  101.4287 O   0  0  0  0  0  0  0  0  0  0  0  0
   71.8466   -2.0747  101.2070 O   0  0  0  0  0  0  0  0  0  0  0  0
  1  2  3  0
  2  3  1  0
  3  4  1  0
  3  5  2  0
M  END
$$$$
1
     RDKit          3D

  9  9  0  0  0  0  0  0  0  0999 V2000
   75.0086    2.8900  101.2107 N   0  0  0  0  0  0  0  0  0  0  0  0
   74.7770    1.7400  101.6968 C   0  0  1  0  0  0  0  0  0  0  0  0
   75.5620    2.9664  100.0204 O   0  0  0  0  0  0  0  0  0  0  0  0
   75.0287    1.2752  102.9457 C   0  0  0  0  0  0  0  0  0  0  0  0
   73.5597    0.9885  101.1221 N   0  0  0  0  0  0  0  0  0  0  0  0
   73.3111   -0.1499  101.7472 C   0  0  0  0  0  0  0  0  0  0  0  0
   73.7964   -0.5398  102.9397 N   0  0  0  0  0  0  0  0  0  0  0  0
   74.6092    0.3064  103.5419 C   0  0  1  0  0  0  0  0  0  0  0  0
   75.1771   -0.0796  104.9148 N   0  0  0  0  0  0  0  0  0  0  0  0
  2  1  1  1
  1  3  1  0
  2  4  1  0
  2  5  1  0
  5  6  1  0
  6  7  1  0
  4  8  1  0
  7  8  1  0
  8  9  1  6
M  END
$$$$
10
     RDKit          3D

 11 11  0  0  0  0  0  0  0  0999 V2000
   75.3004    3.4199   99.8302 O   0  0  0  0  0  0  0  0  0  0  0  0
   74.9390    2.5853  100.8045 C   0  0  0  0  0  0  0  0  0  0  0  0
   74.9341    1.4255  100.9759 N   0  0  0  0  0  0  0  0  0  0  0  0
   74.5343    0.7109  102.1090 C   0  0  1  0  0  0  0  0  0  0  0  0
   74.2498    3.4570  101.8411 O   0  0  0  0  0  0  0  0  0  0  0  0
   74.5619    1.3207  103.3580 C   0  0  0  0  0  0  0  0  0  0  0  0
   74.0329   -0.5846  101.8733 C   0  0  0  0  0  0  0  0  0  0  0  0
   74.1248    0.3882  104.4563 C   0  0  0  0  0  0  0  0  0  0  0  0
   73.7447   -0.8046  104.2073 C   0  0  2  0  0  0  0  0  0  0  0  0
   73.5684   -1.3165  102.9117 C   0  0  0  0  0  0  0  0  0  0  0  0
   73.1139   -1.5940  105.1938 O   0  0  0  0  0  0  0  0  0  0  0  0
  1  2  2  0
  2  3  1  0
  4  3  1  6
  2  5  1  0
  4  6  1  0
  4  7  1  0
  6  8  1  0
  8  9  1  0
  7 10  1  0
  9 10  1  0
  9 11  1  1
M  END
$$$$
100
     RDKit          3D

 28 31  0  0  0  0  0  0  0  0999 V2000
   75.4341    3.4210   99.6461 O   0  0  0  0  0  0  0  0  0  0  0  0
   75.0294    2.6338  100.6869 C   0  0  0  0  0  0  0  0  0  0  0  0
   75.7273    1.6225  101.1897 N   0  0  0  0  0  0  0  0  0  0  0  0
   75.2724    0.7860  102.1865 C   0  0  2  0  0  0  0  0  0  0  0  0
   73.7028    2.8150  101.1667 O   0  0  0  0  0  0  0  0  0  0  0  0
   74.2681   -0.1396  102.0304 C   0  0  0  0  0  0  0  0  0  0  0  0
   73.8267   -0.5295  100.7671 O   0  0  0  0  0  0  0  0  0  0  0  0
   75.7683    1.2701  103.4854 N   0  0  0  0  0  0  0  0  0  0  0  0
   73.6740   -0.6898  103.1817 N   0  0  0  0  0  0  0  0  0  0  0  0
   72.5993   -1.5321  103.1632 C   0  0  1  0  0  0  0  0  0  0  0  0
   74.2636   -0.3661  104.5022 C   0  0  0  0  0  0  0  0  0  0  0  0
   75.2780    0.5344  104.6181 C   0  0  0  0  0  0  0  0  0  0  0  0
   73.7729   -1.0074  105.6079 N   0  0  0  0  0  0  0  0  0  0  0  0
   72.0142   -1.8398  104.4179 C   0  0  0  0  0  0  0  0  0  0  0  0
   72.5820   -1.6400  105.5522 C   0  0  1  0  0  0  0  0  0  0  0  0
   71.4988   -1.3090  102.1687 N   0  0  0  0  0  0  0  0  0  0  0  0
   70.4203   -2.0937  102.5492 C   0  0  1  0  0  0  0  0  0  0  0  0
   70.6747   -2.4047  104.0124 C   0  0  0  0  0  0  0  0  0  0  0  0
   72.0686   -2.1827  106.7063 N   0  0  0  0  0  0  0  0  0  0  0  0
   69.2409   -2.3530  101.8925 C   0  0  2  0  0  0  0  0  0  0  0  0
   68.3359   -1.2679  101.6317 C   0  0  1  0  0  0  0  0  0  0  0  0
   67.9892   -0.3440  102.4897 O   0  0  0  0  0  0  0  0  0  0  0  0
   68.7345   -0.6707  100.2612 C   0  0  2  0  0  0  0  0  0  0  0  0
   68.2092    0.7186  100.1467 C   0  0  1  0  0  0  0  0  0  0  0  0
   67.9319    1.2466   99.0896 O   0  0  0  0  0  0  0  0  0  0  0  0
   68.5065   -3.4861  102.4920 O   0  0  0  0  0  0  0  0  0  0  0  0
   67.2664    0.7298  101.4576 C   0  0  0  0  0  0  0  0  0  0  0  0
   67.9575   -1.2892   99.1563 O   0  0  0  0  0  0  0  0  0  0  0  0
  1  2  2  0
  2  3  1  0
  4  3  1  6
  2  5  1  0
  4  6  1  0
  6  7  2  0
  4  8  1  0
  6  9  1  0
  9 10  1  0
  9 11  1  0
  8 12  1  0
 11 12  1  0
 11 13  1  0
 10 14  1  0
 13 15  1  0
 14 15  1  0
 10 16  1  6
 16 17  1  0
 14 18  1  0
 17 18  1  1
 15 19  1  6
 17 20  1  0
 20 21  1  0
 21 22  1  1
 21 23  1  0
 23 24  1  0
 24 25  1  6
 20 26  1  1
 22 27  1  0
 24 27  1  0
 23 28  1  6
M  END
$$$$
101
     RDKit          3D

 28 31  0  0  0  0  0  0  0  0999 V2000
   75.9145    1.2355  104.5227 C   0  0  0  0  0  0  0  0  0  0  0  0
   75.2490    0.9036  103.3715 C   0  0  1  0  0  0  0  0  0  0  0  0
   75.5099    0.4447  105.6013 N   0  0  0  0  0  0  0  0  0  0  0  0
   74.5259   -0.3880  105.3410 C   0  0  0  0  0  0  0  0  0  0  0  0
   74.2206   -0.1091  103.7241 C   0  0  1  0  0  0  0  0  0  0  0  0
   75.1978    1.5186  102.0794 C   0  0  1  0  0  0  0  0  0  0  0  0
   73.2819   -0.3952  102.8612 C   0  0  2  0  0  0  0  0  0  0  0  0
   72.3154   -1.3669  103.1108 N   0  0  0  0  0  0  0  0  0  0  0  0
   76.0595    2.5009  101.7564 N   0  0  0  0  0  0  0  0  0  0  0  0
   75.6082    2.9319  100.4619 C   0  0  0  0  0  0  0  0  0  0  0  0
   74.2601    1.0310  101.1063 N   0  0  0  0  0  0  0  0  0  0  0  0
   73.4183    0.1509  101.5481 N   0  0  0  0  0  0  0  0  0  0  0  0
   76.1631    4.0720   99.9087 O   0  0  0  0  0  0  0  0  0  0  0  0
   74.4750    2.1348  100.0967 C   0  0  0  0  0  0  0  0  0  0  0  0
   71.8701   -1.6378  104.4148 C   0  0  0  0  0  0  0  0  0  0  0  0
   70.7424   -2.5243  104.4894 C   0  0  1  0  0  0  0  0  0  0  0  0
   70.2745   -2.8208  105.6763 O   0  0  0  0  0  0  0  0  0  0  0  0
   71.2389   -1.5797  102.2621 C   0  0  0  0  0  0  0  0  0  0  0  0
   70.2760   -2.1974  102.9876 C   0  0  1  0  0  0  0  0  0  0  0  0
   69.4823   -3.4792  102.7590 C   0  0  1  0  0  0  0  0  0  0  0  0
   70.3782   -4.4546  102.0542 O   0  0  0  0  0  0  0  0  0  0  0  0
   70.4961   -5.0201  100.8585 C   0  0  0  0  0  0  0  0  0  0  0  0
   68.7795   -4.3093  103.6789 C   0  0  0  0  0  0  0  0  0  0  0  0
   71.2172   -4.3453   99.8921 C   0  0  0  0  0  0  0  0  0  0  0  0
   69.7564   -6.0282  100.5266 O   0  0  0  0  0  0  0  0  0  0  0  0
   68.6002   -5.6253  103.4220 O   0  0  0  0  0  0  0  0  0  0  0  0
   69.0313   -1.1923  103.2472 O   0  0  0  0  0  0  0  0  0  0  0  0
   72.5307   -4.0450  100.2208 O   0  0  0  0  0  0  0  0  0  0  0  0
  2  1  1  1
  1  3  1  0
  3  4  1  0
  2  5  1  0
  5  4  1  1
  2  6  1  0
  5  7  1  0
  7  8  1  6
  6  9  1  6
  9 10  1  0
  6 11  1  0
  7 12  1  0
 11 12  1  0
 10 13  2  0
 10 14  1  0
 11 14  1  0
  8 15  1  0
 15 16  1  0
 16 17  1  1
  8 18  1  0
 16 19  1  0
 18 19  1  0
 19 20  1  0
 20 21  1  0
 21 22  1  0
 20 23  1  1
 22 24  1  0
 22 25  2  0
 23 26  1  0
 19 27  1  1
 24 28  1  0
M  END
$$$$
102
     RDKit          3D

 28 30  0  0  0  0  0  0  0  0999 V2000
   67.3332    1.1660  101.7163 C   0  0  0  0  0  0  0  0  0  0  0  0
   67.4945   -0.0906  101.9822 N   0  0  0  0  0  0  0  0  0  0  0  0
   67.3919    1.4571  100.3166 N   0  0  0  0  0  0  0  0  0  0  0  0
   68.2567   -0.8095  101.1392 C   0  0  1  0  0  0  0  0  0  0  0  0
   68.7422   -2.0298  101.2748 N   0  0  0  0  0  0  0  0  0  0  0  0
   68.0117    0.0653   99.8839 C   0  0  1  0  0  0  0  0  0  0  0  0
   68.2817   -0.4229   98.6096 O   0  0  0  0  0  0  0  0  0  0  0  0
   68.7627   -2.6400  102.3810 C   0  0  1  0  0  0  0  0  0  0  0  0
   69.2102   -4.0855  102.2471 C   0  0  2  0  0  0  0  0  0  0  0  0
   69.5069   -2.0408  103.5185 O   0  0  0  0  0  0  0  0  0  0  0  0
   70.2705   -2.9570  104.1938 C   0  0  1  0  0  0  0  0  0  0  0  0
   67.1217   -1.2848   98.1099 C   0  0  0  0  0  0  0  0  0  0  0  0
   70.3035   -4.1702  103.2630 C   0  0  1  0  0  0  0  0  0  0  0  0
   66.4700   -0.6614   96.9925 C   0  0  0  0  0  0  0  0  0  0  0  0
   70.4935   -5.4045  103.9667 O   0  0  0  0  0  0  0  0  0  0  0  0
   65.5203   -1.3473   96.4114 O   0  0  0  0  0  0  0  0  0  0  0  0
   71.2356   -2.2804  104.9520 C   0  0  0  0  0  0  0  0  0  0  0  0
   72.0750   -1.5447  104.0222 O   0  0  0  0  0  0  0  0  0  0  0  0
   72.8969   -0.3221  104.3274 C   0  0  0  0  0  0  0  0  0  0  0  0
   73.8620   -0.0998  103.2086 C   0  0  0  0  0  0  0  0  0  0  0  0
   69.7947   -4.2728  100.9798 O   0  0  0  0  0  0  0  0  0  0  0  0
   69.1793   -3.1975  100.0811 C   0  0  0  0  0  0  0  0  0  0  0  0
   74.9758    0.6953  103.5213 C   0  0  0  0  0  0  0  0  0  0  0  0
   75.4882    1.4123  102.3997 N   0  0  0  0  0  0  0  0  0  0  0  0
   75.4591    0.7602  104.6891 O   0  0  0  0  0  0  0  0  0  0  0  0
   74.7707    2.1002  101.5206 C   0  0  0  0  0  0  0  0  0  0  0  0
   73.6251    2.2594  101.6400 O   0  0  0  0  0  0  0  0  0  0  0  0
   75.5316    2.6800  100.4437 N   0  0  0  0  0  0  0  0  0  0  0  0
  1  2  1  0
  1  3  1  0
  2  4  1  0
  4  5  1  6
  3  6  1  0
  4  6  1  0
  6  7  1  6
  5  8  1  0
  8  9  1  0
  8 10  1  1
 10 11  1  0
  7 12  1  0
  9 13  1  0
 11 13  1  0
 12 14  1  0
 13 15  1  1
 14 16  1  0
 11 17  1  6
 17 18  1  0
 18 19  1  0
 19 20  1  0
  9 21  1  6
  5 22  1  0
 21 22  1  0
 20 23  1  0
 23 24  1  0
 23 25  2  0
 24 26  1  0
 26 27  2  0
 26 28  1  0
M  END
$$$$
103
     RDKit          3D

 28 30  0  0  0  0  0  0  0  0999 V2000
   74.5860   -1.2261  105.4439 O   0  0  0  0  0  0  0  0  0  0  0  0
   74.7300   -0.0631  104.7522 C   0  0  0  0  0  0  0  0  0  0  0  0
   75.6359    0.7654  104.9638 N   0  0  0  0  0  0  0  0  0  0  0  0
   74.0981   -0.1288  103.3927 C   0  0  2  0  0  0  0  0  0  0  0  0
   74.4728    0.9237  102.5115 C   0  0  1  0  0  0  0  0  0  0  0  0
   73.0095   -0.9625  103.1033 N   0  0  0  0  0  0  0  0  0  0  0  0
   75.4568    1.8602  102.8625 N   0  0  0  0  0  0  0  0  0  0  0  0
   73.9900    1.0739  101.1034 N   0  0  0  0  0  0  0  0  0  0  0  0
   76.0599    1.6014  104.0965 C   0  0  0  0  0  0  0  0  0  0  0  0
   72.0960   -1.3138  104.0251 C   0  0  0  0  0  0  0  0  0  0  0  0
   71.0583   -2.1592  103.7245 C   0  0  1  0  0  0  0  0  0  0  0  0
   74.4490    2.2185  100.6066 C   0  0  0  0  0  0  0  0  0  0  0  0
   69.9873   -1.6765  102.9114 C   0  0  2  0  0  0  0  0  0  0  0  0
   68.4856   -1.8140  103.4867 C   0  0  0  0  0  0  0  0  0  0  0  0
   75.4956    2.7934  101.5084 N   0  0  0  0  0  0  0  0  0  0  0  0
   70.0925   -1.2655  101.6401 O   0  0  0  0  0  0  0  0  0  0  0  0
   69.1176   -1.4809  100.7719 C   0  0  2  0  0  0  0  0  0  0  0  0
   72.0160   -0.8707  105.2357 O   0  0  0  0  0  0  0  0  0  0  0  0
   67.8238   -1.2202  101.1025 C   0  0  1  0  0  0  0  0  0  0  0  0
   74.8436    2.9867   99.5863 O   0  0  0  0  0  0  0  0  0  0  0  0
   67.5344   -1.6168  102.5466 O   0  0  0  0  0  0  0  0  0  0  0  0
   68.9644   -2.8628  100.2410 C   0  0  0  0  0  0  0  0  0  0  0  0
   71.4133   -3.3366  102.9071 O   0  0  0  0  0  0  0  0  0  0  0  0
   68.1196   -3.0640   99.2705 O   0  0  0  0  0  0  0  0  0  0  0  0
   68.6073   -2.8454  104.2930 O   0  0  0  0  0  0  0  0  0  0  0  0
   67.2261    0.0425  100.7273 C   0  0  0  0  0  0  0  0  0  0  0  0
   67.1585    0.4271   99.5493 O   0  0  0  0  0  0  0  0  0  0  0  0
   67.0088    0.8820  101.7783 O   0  0  0  0  0  0  0  0  0  0  0  0
  1  2  2  0
  2  3  1  0
  2  4  1  0
  4  5  1  0
  4  6  1  1
  5  7  1  0
  5  8  1  6
  3  9  1  0
  7  9  1  0
  6 10  1  0
 10 11  1  0
  8 12  1  0
 11 13  1  0
 13 14  1  0
  7 15  1  0
 12 15  1  0
 13 16  1  6
 16 17  1  0
 10 18  2  0
 17 19  1  0
 12 20  2  0
 14 21  1  0
 19 21  1  0
 17 22  1  1
 11 23  1  6
 22 24  1  0
 14 25  2  0
 19 26  1  1
 26 27  2  0
 26 28  1  0
M  END
$$$$
104
     RDKit          3D

 28 30  0  0  0  0  0  0  0  0999 V2000
   67.3332    1.1660  101.7163 C   0  0  0  0  0  0  0  0  0  0  0  0
   67.4945   -0.0906  101.9822 N   0  0  0  0  0  0  0  0  0  0  0  0
   67.3919    1.4571  100.3166 N   0  0  0  0  0  0  0  0  0  0  0  0
   68.2567   -0.8095  101.1392 C   0  0  1  0  0  0  0  0  0  0  0  0
   68.7422   -2.0298  101.2748 N   0  0  0  0  0  0  0  0  0  0  0  0
   68.0117    0.0653   99.8839 C   0  0  1  0  0  0  0  0  0  0  0  0
   68.2817   -0.4229   98.6096 O   0  0  0  0  0  0  0  0  0  0  0  0
   68.7627   -2.6400  102.3810 C   0  0  1  0  0  0  0  0  0  0  0  0
   69.2102   -4.0855  102.2471 C   0  0  2  0  0  0  0  0  0  0  0  0
   69.5069   -2.0408  103.5185 O   0  0  0  0  0  0  0  0  0  0  0  0
   70.2705   -2.9570  104.1938 C   0  0  2  0  0  0  0  0  0  0  0  0
   67.1217   -1.2848   98.1099 C   0  0  2  0  0  0  0  0  0  0  0  0
   70.0253   -4.3239  103.4724 C   0  0  2  0  0  0  0  0  0  0  0  0
   69.8699   -2.8735  105.5806 C   0  0  0  0  0  0  0  0  0  0  0  0
   67.0213   -2.5535   98.2465 C   0  0  0  0  0  0  0  0  0  0  0  0
   66.2610   -0.5457   97.2090 C   0  0  0  0  0  0  0  0  0  0  0  0
   68.8906   -3.6035  105.9070 O   0  0  0  0  0  0  0  0  0  0  0  0
   69.9468   -4.0201  101.0011 O   0  0  0  0  0  0  0  0  0  0  0  0
   70.0153   -5.1008  100.1816 C   0  0  2  0  0  0  0  0  0  0  0  0
   71.0387   -2.6805  106.3274 O   0  0  0  0  0  0  0  0  0  0  0  0
   65.2086   -1.2260   96.6597 C   0  0  1  0  0  0  0  0  0  0  0  0
   66.0581   -3.3458   97.5233 C   0  0  0  0  0  0  0  0  0  0  0  0
   64.3215   -0.5478   95.8776 O   0  0  0  0  0  0  0  0  0  0  0  0
   65.1588   -2.6167   96.6867 C   0  0  0  0  0  0  0  0  0  0  0  0
   70.4813   -6.1991  100.7641 O   0  0  0  0  0  0  0  0  0  0  0  0
   69.9952   -4.8333   98.8271 C   0  0  0  0  0  0  0  0  0  0  0  0
   68.7662   -5.1880   98.1897 O   0  0  0  0  0  0  0  0  0  0  0  0
   71.3139   -4.8222  103.6323 O   0  0  0  0  0  0  0  0  0  0  0  0
  1  2  1  0
  1  3  1  0
  2  4  1  0
  4  5  1  6
  3  6  1  0
  4  6  1  0
  6  7  1  6
  8  5  1  6
  8  9  1  0
  8 10  1  0
 10 11  1  0
 12  7  1  6
  9 13  1  0
 11 13  1  0
 11 14  1  1
 12 15  1  0
 12 16  1  0
 14 17  1  0
  9 18  1  6
 18 19  1  0
 14 20  2  0
 16 21  1  0
 15 22  1  0
 21 23  1  6
 21 24  1  0
 22 24  1  0
 19 25  1  6
 19 26  1  0
 26 27  1  0
 13 28  1  6
M  END
$$$$
105
     RDKit          3D

 28 31  0  0  0  0  0  0  0  0999 V2000
   74.7873    2.9106  100.1427 C   0  0  0  0  0  0  0  0  0  0  0  0
   75.5325    2.7443  101.0909 N   0  0  0  0  0  0  0  0  0  0  0  0
   75.0122    3.5195   99.1627 O   0  0  0  0  0  0  0  0  0  0  0  0
   75.1825    1.8494  102.2075 C   0  0  2  0  0  0  0  0  0  0  0  0
   75.9442    1.4789  103.2617 N   0  0  0  0  0  0  0  0  0  0  0  0
   73.9467    1.0700  102.1098 N   0  0  0  0  0  0  0  0  0  0  0  0
   73.7324    0.2467  103.1964 C   0  0  0  0  0  0  0  0  0  0  0  0
   72.6390   -0.5058  103.3300 N   0  0  0  0  0  0  0  0  0  0  0  0
   75.3818    0.5583  104.1268 C   0  0  0  0  0  0  0  0  0  0  0  0
   74.4669   -0.0010  104.1998 C   0  0  0  0  0  0  0  0  0  0  0  0
   73.6687   -0.9161  104.8785 N   0  0  0  0  0  0  0  0  0  0  0  0
   72.6041   -1.1342  104.4267 C   0  0  0  0  0  0  0  0  0  0  0  0
   73.3552    2.4028  100.3035 C   0  0  0  0  0  0  0  0  0  0  0  0
   71.5641   -1.9582  104.9748 C   0  0  2  0  0  0  0  0  0  0  0  0
   70.5674   -2.3514  104.0539 C   0  0  2  0  0  0  0  0  0  0  0  0
   69.4771   -2.9820  104.5673 O   0  0  0  0  0  0  0  0  0  0  0  0
   73.3606    1.2204  101.1520 C   0  0  0  0  0  0  0  0  0  0  0  0
   71.1477   -3.5187  103.1545 O   0  0  0  0  0  0  0  0  0  0  0  0
   71.0497   -1.1685  106.0448 O   0  0  0  0  0  0  0  0  0  0  0  0
   70.2556   -4.4684  102.6000 C   0  0  2  0  0  0  0  0  0  0  0  0
   70.7873   -5.3668  101.7321 C   0  0  0  0  0  0  0  0  0  0  0  0
   69.0624   -3.6019  101.8935 C   0  0  2  0  0  0  0  0  0  0  0  0
   71.5565   -4.8034  100.8310 O   0  0  0  0  0  0  0  0  0  0  0  0
   71.4694   -6.4774  102.4634 O   0  0  0  0  0  0  0  0  0  0  0  0
   68.3134   -2.7284  102.6852 C   0  0  0  0  0  0  0  0  0  0  0  0
   68.3703   -3.3728  104.0960 C   0  0  0  0  0  0  0  0  0  0  0  0
   67.5870   -3.9185  104.7128 O   0  0  0  0  0  0  0  0  0  0  0  0
   68.3113   -4.4898  100.9865 O   0  0  0  0  0  0  0  0  0  0  0  0
  1  2  1  0
  1  3  2  0
  4  2  1  6
  4  5  1  0
  4  6  1  0
  6  7  1  0
  7  8  1  0
  5  9  1  0
  7 10  1  0
  9 10  1  0
 10 11  1  0
  8 12  1  0
 11 12  1  0
  1 13  1  0
 12 14  1  0
 14 15  1  0
 15 16  1  1
  6 17  1  0
 13 17  1  0
 15 18  1  0
 14 19  1  1
 18 20  1  0
 20 21  1  6
 20 22  1  0
 21 23  1  0
 21 24  1  0
 22 25  1  0
 16 26  1  0
 25 26  1  0
 26 27  2  0
 22 28  1  1
M  END
$$$$
106
     RDKit          3D

 28 31  0  0  0  0  0  0  0  0999 V2000
   75.9145    1.2355  104.5227 C   0  0  0  0  0  0  0  0  0  0  0  0
   75.2490    0.9036  103.3715 C   0  0  1  0  0  0  0  0  0  0  0  0
   75.5099    0.4447  105.6013 N   0  0  0  0  0  0  0  0  0  0  0  0
   74.5259   -0.3880  105.3410 C   0  0  0  0  0  0  0  0  0  0  0  0
   74.2206   -0.1091  103.7241 C   0  0  1  0  0  0  0  0  0  0  0  0
   75.1978    1.5186  102.0794 C   0  0  1  0  0  0  0  0  0  0  0  0
   73.2819   -0.3952  102.8612 C   0  0  2  0  0  0  0  0  0  0  0  0
   72.3154   -1.3669  103.1108 N   0  0  0  0  0  0  0  0  0  0  0  0
   76.0595    2.5009  101.7564 N   0  0  0  0  0  0  0  0  0  0  0  0
   75.6082    2.9319  100.4619 C   0  0  0  0  0  0  0  0  0  0  0  0
   74.2601    1.0310  101.1063 N   0  0  0  0  0  0  0  0  0  0  0  0
   73.4183    0.1509  101.5481 N   0  0  0  0  0  0  0  0  0  0  0  0
   76.1631    4.0720   99.9087 O   0  0  0  0  0  0  0  0  0  0  0  0
   74.4750    2.1348  100.0967 C   0  0  0  0  0  0  0  0  0  0  0  0
   71.8701   -1.6378  104.4148 C   0  0  0  0  0  0  0  0  0  0  0  0
   70.7424   -2.5243  104.4894 C   0  0  1  0  0  0  0  0  0  0  0  0
   70.2745   -2.8208  105.6763 O   0  0  0  0  0  0  0  0  0  0  0  0
   71.2389   -1.5797  102.2621 C   0  0  0  0  0  0  0  0  0  0  0  0
   70.2760   -2.1974  102.9876 C   0  0  1  0  0  0  0  0  0  0  0  0
   69.4823   -3.4792  102.7590 C   0  0  1  0  0  0  0  0  0  0  0  0
   70.3782   -4.4546  102.0542 O   0  0  0  0  0  0  0  0  0  0  0  0
   70.4961   -5.0201  100.8585 C   0  0  0  0  0  0  0  0  0  0  0  0
   68.7795   -4.3093  103.6789 C   0  0  0  0  0  0  0  0  0  0  0  0
   71.2172   -4.3453   99.8921 C   0  0  0  0  0  0  0  0  0  0  0  0
   69.7564   -6.0282  100.5266 O   0  0  0  0  0  0  0  0  0  0  0  0
   70.7646   -4.0210   98.6327 N   0  0  0  0  0  0  0  0  0  0  0  0
   72.4918   -4.4006  100.0261 O   0  0  0  0  0  0  0  0  0  0  0  0
   68.4062   -5.5327  103.3663 O   0  0  0  0  0  0  0  0  0  0  0  0
  2  1  1  1
  1  3  1  0
  3  4  1  0
  2  5  1  0
  5  4  1  1
  2  6  1  0
  5  7  1  0
  7  8  1  6
  6  9  1  6
  9 10  1  0
  6 11  1  0
  7 12  1  0
 11 12  1  0
 10 13  2  0
 10 14  1  0
 11 14  1  0
  8 15  1  0
 15 16  1  0
 16 17  1  1
  8 18  1  0
 16 19  1  0
 19 18  1  6
 19 20  1  0
 20 21  1  0
 21 22  1  0
 20 23  1  1
 22 24  1  0
 22 25  2  0
 24 26  1  0
 24 27  2  0
 23 28  1  0
M  END
$$$$
107
     RDKit          3D

 28 31  0  0  0  0  0  0  0  0999 V2000
   67.3332    1.1660  101.7163 C   0  0  0  0  0  0  0  0  0  0  0  0
   67.4945   -0.0906  101.9822 N   0  0  0  0  0  0  0  0  0  0  0  0
   67.3919    1.4571  100.3166 N   0  0  0  0  0  0  0  0  0  0  0  0
   68.2567   -0.8095  101.1392 C   0  0  1  0  0  0  0  0  0  0  0  0
   68.7422   -2.0298  101.2748 N   0  0  0  0  0  0  0  0  0  0  0  0
   68.0117    0.0653   99.8839 C   0  0  1  0  0  0  0  0  0  0  0  0
   68.2817   -0.4229   98.6096 O   0  0  0  0  0  0  0  0  0  0  0  0
   68.7627   -2.6400  102.3810 C   0  0  1  0  0  0  0  0  0  0  0  0
   69.2102   -4.0855  102.2471 C   0  0  2  0  0  0  0  0  0  0  0  0
   69.5069   -2.0408  103.5185 O   0  0  0  0  0  0  0  0  0  0  0  0
   70.2705   -2.9570  104.1938 C   0  0  2  0  0  0  0  0  0  0  0  0
   67.1217   -1.2848   98.1099 C   0  0  1  0  0  0  0  0  0  0  0  0
   70.0253   -4.3239  103.4724 C   0  0  1  0  0  0  0  0  0  0  0  0
   69.8699   -2.8735  105.5806 C   0  0  0  0  0  0  0  0  0  0  0  0
   71.0798   -3.0423  106.4249 C   0  0  0  0  0  0  0  0  0  0  0  0
   67.0187   -2.5510   98.2441 C   0  0  0  0  0  0  0  0  0  0  0  0
   65.7594   -0.5344   98.2763 C   0  0  0  0  0  0  0  0  0  0  0  0
   64.7439   -1.4915   97.6987 O   0  0  0  0  0  0  0  0  0  0  0  0
   69.2476   -5.2554  104.3355 O   0  0  0  0  0  0  0  0  0  0  0  0
   68.2208   -3.1217   98.8617 O   0  0  0  0  0  0  0  0  0  0  0  0
   68.6832   -4.3580   99.3087 C   0  0  0  0  0  0  0  0  0  0  0  0
   69.3336   -5.1424   98.3902 C   0  0  0  0  0  0  0  0  0  0  0  0
   69.2204   -4.3565  100.6943 C   0  0  0  0  0  0  0  0  0  0  0  0
   71.9701   -1.9721  106.2381 O   0  0  0  0  0  0  0  0  0  0  0  0
   72.2478   -1.3519  104.9295 C   0  0  0  0  0  0  0  0  0  0  0  0
   71.6720   -2.4491  103.9393 C   0  0  2  0  0  0  0  0  0  0  0  0
   71.8443   -1.8774  102.5688 O   0  0  0  0  0  0  0  0  0  0  0  0
   70.2501   -4.7241   97.6351 O   0  0  0  0  0  0  0  0  0  0  0  0
  1  2  1  0
  1  3  1  0
  4  2  1  6
  4  5  1  0
  6  3  1  6
  4  6  1  0
  6  7  1  0
  8  5  1  6
  8  9  1  0
  8 10  1  0
 10 11  1  0
  7 12  1  0
  9 13  1  0
 11 13  1  0
 11 14  1  1
 14 15  1  0
 12 16  1  0
 12 17  1  1
 17 18  1  0
 13 19  1  1
 16 20  1  0
 20 21  1  0
 21 22  1  0
  9 23  1  6
 21 23  2  3
 15 24  1  0
 24 25  1  0
 11 26  1  0
 25 26  1  0
 26 27  1  6
 22 28  1  0
M  END
$$$$
108
     RDKit          3D

 28 31  0  0  0  0  0  0  0  0999 V2000
   75.4341    3.4210   99.6461 O   0  0  0  0  0  0  0  0  0  0  0  0
   75.0294    2.6338  100.6869 C   0  0  0  0  0  0  0  0  0  0  0  0
   75.7273    1.6225  101.1897 N   0  0  0  0  0  0  0  0  0  0  0  0
   75.2724    0.7860  102.1865 C   0  0  2  0  0  0  0  0  0  0  0  0
   73.6272    2.6155  101.0179 O   0  0  0  0  0  0  0  0  0  0  0  0
   74.2750   -0.1281  102.0511 C   0  0  0  0  0  0  0  0  0  0  0  0
   73.6733   -0.8107  103.0807 C   0  0  1  0  0  0  0  0  0  0  0  0
   73.9031   -0.3681  104.1593 C   0  0  2  0  0  0  0  0  0  0  0  0
   75.2924    1.1368  103.6469 C   0  0  0  0  0  0  0  0  0  0  0  0
   74.7695    0.5259  104.6279 C   0  0  0  0  0  0  0  0  0  0  0  0
   72.4786   -1.7170  102.7580 C   0  0  0  0  0  0  0  0  0  0  0  0
   73.0820   -1.0981  105.4134 N   0  0  0  0  0  0  0  0  0  0  0  0
   71.7443   -2.1653  103.8491 N   0  0  0  0  0  0  0  0  0  0  0  0
   72.1008   -2.0806  101.6151 O   0  0  0  0  0  0  0  0  0  0  0  0
   72.0284   -1.8114  105.1431 C   0  0  0  0  0  0  0  0  0  0  0  0
   70.4458   -2.7894  103.7248 C   0  0  1  0  0  0  0  0  0  0  0  0
   71.0844   -2.2026  105.9358 N   0  0  0  0  0  0  0  0  0  0  0  0
   70.3653   -3.1594  105.3670 C   0  0  2  0  0  0  0  0  0  0  0  0
   70.6124   -4.4133  105.6236 C   0  0  0  0  0  0  0  0  0  0  0  0
   69.2658   -2.1062  103.2175 C   0  0  0  0  0  0  0  0  0  0  0  0
   69.6844   -5.3962  105.2687 O   0  0  0  0  0  0  0  0  0  0  0  0
   68.1970   -2.7134  103.2481 O   0  0  0  0  0  0  0  0  0  0  0  0
   69.4690   -1.1198  102.2970 N   0  0  0  0  0  0  0  0  0  0  0  0
   68.3450   -0.3666  101.6770 C   0  0  1  0  0  0  0  0  0  0  0  0
   68.6281    0.5979  100.6703 C   0  0  0  0  0  0  0  0  0  0  0  0
   67.2981   -1.2863  101.2071 C   0  0  0  0  0  0  0  0  0  0  0  0
   66.8794   -0.7144   99.9461 C   0  0  0  0  0  0  0  0  0  0  0  0
   67.5786    0.5074   99.7211 N   0  0  0  0  0  0  0  0  0  0  0  0
  1  2  2  0
  2  3  1  0
  4  3  1  6
  2  5  1  0
  4  6  1  0
  7  6  1  6
  7  8  1  0
  4  9  1  0
  8 10  1  1
  9 10  1  0
  7 11  1  0
  8 12  1  0
 11 13  1  0
 11 14  2  0
 12 15  1  0
 13 15  1  0
 13 16  1  0
 15 17  2  0
 16 18  1  0
 17 18  1  0
 18 19  1  6
 16 20  1  1
 19 21  1  0
 20 22  2  0
 20 23  1  0
 24 23  1  6
 24 25  1  0
 24 26  1  0
 26 27  1  0
 25 28  1  0
 27 28  1  0
M  END
$$$$
109
     RDKit          3D

 28 32  0  0  0  0  0  0  0  0999 V2000
   74.9935    2.0727  101.2714 C   0  0  2  0  0  0  0  0  0  0  0  0
   74.9204    2.7159  100.2547 C   0  0  0  0  0  0  0  0  0  0  0  0
   76.0150    2.1051  102.1276 N   0  0  0  0  0  0  0  0  0  0  0  0
   73.9179    1.1085  101.5746 N   0  0  0  0  0  0  0  0  0  0  0  0
   75.9448    1.1733  103.2605 C   0  0  0  0  0  0  0  0  0  0  0  0
   75.6640    3.8647  100.0526 O   0  0  0  0  0  0  0  0  0  0  0  0
   73.9143    0.3089  102.6213 C   0  0  0  0  0  0  0  0  0  0  0  0
   74.9488    0.3275  103.5351 C   0  0  0  0  0  0  0  0  0  0  0  0
   74.6435   -0.5724  104.5607 N   0  0  0  0  0  0  0  0  0  0  0  0
   72.9645   -0.6003  102.9964 N   0  0  0  0  0  0  0  0  0  0  0  0
   73.4371   -1.0414  104.3159 C   0  0  2  0  0  0  0  0  0  0  0  0
   71.7451   -1.0617  102.5108 C   0  0  0  0  0  0  0  0  0  0  0  0
   71.1009   -1.7566  103.7600 C   0  0  1  0  0  0  0  0  0  0  0  0
   69.9032   -2.3860  103.7486 C   0  0  0  0  0  0  0  0  0  0  0  0
   72.2231   -1.7315  104.7611 N   0  0  0  0  0  0  0  0  0  0  0  0
   69.2408   -2.6413  104.8328 O   0  0  0  0  0  0  0  0  0  0  0  0
   69.5076   -3.0647  102.6222 N   0  0  0  0  0  0  0  0  0  0  0  0
   68.2582   -2.7456  101.9851 C   0  0  2  0  0  0  0  0  0  0  0  0
   68.1139   -3.1858  100.7706 O   0  0  0  0  0  0  0  0  0  0  0  0
   68.5377   -2.5442   99.6444 C   0  0  1  0  0  0  0  0  0  0  0  0
   67.6239   -2.1378   98.8212 C   0  0  0  0  0  0  0  0  0  0  0  0
   68.3112   -1.1291  101.9088 C   0  0  0  0  0  0  0  0  0  0  0  0
   68.5499   -0.9000  100.4331 C   0  0  2  0  0  0  0  0  0  0  0  0
   67.6567   -0.0951   99.8282 N   0  0  0  0  0  0  0  0  0  0  0  0
   67.3140   -2.8793   97.6722 O   0  0  0  0  0  0  0  0  0  0  0  0
   67.1449   -0.6633   98.6652 C   0  0  0  0  0  0  0  0  0  0  0  0
   67.8459    1.3560   99.7601 C   0  0  0  0  0  0  0  0  0  0  0  0
   68.4416    1.9086  100.8437 O   0  0  0  0  0  0  0  0  0  0  0  0
  1  2  1  6
  1  3  1  0
  1  4  1  0
  3  5  1  0
  2  6  1  0
  4  7  1  0
  5  8  1  0
  7  8  1  0
  8  9  1  0
  7 10  1  0
 11  9  1  1
 10 11  1  0
 10 12  1  0
 12 13  1  0
 13 14  1  6
 11 15  1  0
 13 15  1  0
 14 16  2  0
 14 17  1  0
 18 17  1  6
 18 19  1  0
 20 19  1  1
 20 21  1  0
 18 22  1  0
 20 23  1  0
 23 22  1  1
 23 24  1  0
 21 25  2  0
 21 26  1  0
 24 26  1  0
 24 27  1  0
 27 28  2  0
M  END
$$$$
11
     RDKit          3D

 12 13  0  0  0  0  0  0  0  0999 V2000
   74.9088    2.6714   99.7708 O   0  0  0  0  0  0  0  0  0  0  0  0
   75.0074    2.7277  101.0306 C   0  0  0  0  0  0  0  0  0  0  0  0
   75.3265    3.5647  101.7233 O   0  0  0  0  0  0  0  0  0  0  0  0
   74.6036    1.3843  101.7023 C   0  0  1  0  0  0  0  0  0  0  0  0
   74.4783    0.2767  101.1353 N   0  0  0  0  0  0  0  0  0  0  0  0
   74.4895    1.3902  103.1269 C   0  0  2  0  0  0  0  0  0  0  0  0
   74.9621    2.0452  104.1551 C   0  0  0  0  0  0  0  0  0  0  0  0
   74.0097   -0.1068  103.2954 C   0  0  1  0  0  0  0  0  0  0  0  0
   74.0618   -0.6803  102.0310 N   0  0  0  0  0  0  0  0  0  0  0  0
   73.7966   -0.6633  104.5304 C   0  0  0  0  0  0  0  0  0  0  0  0
   74.6545    1.4127  105.4767 C   0  0  0  0  0  0  0  0  0  0  0  0
   74.2901    0.0577  105.5862 C   0  0  0  0  0  0  0  0  0  0  0  0
  1  2  2  0
  2  3  1  0
  4  2  1  1
  4  5  1  0
  4  6  1  0
  6  7  1  1
  6  8  1  0
  5  9  1  0
  8  9  1  0
  8 10  1  1
  7 11  1  0
 10 12  1  0
 11 12  1  0
M  END
$$$$
110
     RDKit          3D

 28 30  0  0  0  0  0  0  0  0999 V2000
   74.8931   -0.5078  105.5960 N   0  0  0  0  0  0  0  0  0  0  0  0
   73.7145   -0.8723  105.1113 C   0  0  0  0  0  0  0  0  0  0  0  0
   75.6633    0.2754  104.7263 C   0  0  2  0  0  0  0  0  0  0  0  0
   73.3875   -0.3447  103.9750 N   0  0  0  0  0  0  0  0  0  0  0  0
   72.3298   -0.5755  103.2340 C   0  0  0  0  0  0  0  0  0  0  0  0
   76.8170    0.8760  104.8068 N   0  0  0  0  0  0  0  0  0  0  0  0
   74.6464    0.3953  103.5798 C   0  0  0  0  0  0  0  0  0  0  0  0
   74.8544    1.0606  102.3834 N   0  0  0  0  0  0  0  0  0  0  0  0
   75.1532    2.2695  102.2226 C   0  0  0  0  0  0  0  0  0  0  0  0
   72.2005   -0.4660  101.9565 O   0  0  0  0  0  0  0  0  0  0  0  0
   74.8426    2.6767  100.8155 C   0  0  0  0  0  0  0  0  0  0  0  0
   71.5153   -1.7303  103.6442 C   0  0  0  0  0  0  0  0  0  0  0  0
   75.7939    3.2221  100.0017 O   0  0  0  0  0  0  0  0  0  0  0  0
   70.2814   -1.9224  102.9858 N   0  0  0  0  0  0  0  0  0  0  0  0
   71.4744   -2.2550  104.6742 O   0  0  0  0  0  0  0  0  0  0  0  0
   69.2150   -2.7902  103.4642 C   0  0  0  0  0  0  0  0  0  0  0  0
   73.6559    2.3267  100.3769 O   0  0  0  0  0  0  0  0  0  0  0  0
   69.9199   -1.4052  101.8840 C   0  0  0  0  0  0  0  0  0  0  0  0
   68.2139   -3.0474  102.4824 C   0  0  0  0  0  0  0  0  0  0  0  0
   68.5312   -1.6339  101.7959 C   0  0  2  0  0  0  0  0  0  0  0  0
   68.0559   -1.6554  100.2846 N   0  0  0  0  0  0  0  0  0  0  0  0
   67.3993   -0.5431   99.8262 C   0  0  1  0  0  0  0  0  0  0  0  0
   68.0151   -2.7556   99.5093 C   0  0  0  0  0  0  0  0  0  0  0  0
   67.5269   -2.4481   98.1784 N   0  0  0  0  0  0  0  0  0  0  0  0
   67.2807    0.7118  100.2925 N   0  0  0  0  0  0  0  0  0  0  0  0
   67.1404   -1.0037   98.4143 C   0  0  1  0  0  0  0  0  0  0  0  0
   66.4550   -0.2430   97.4030 N   0  0  0  0  0  0  0  0  0  0  0  0
   67.7578    1.1568  101.5156 C   0  0  0  0  0  0  0  0  0  0  0  0
  1  2  1  0
  1  3  1  0
  2  4  1  0
  4  5  1  0
  3  6  1  1
  3  7  1  0
  4  7  1  0
  7  8  1  0
  8  9  1  0
  5 10  2  0
  9 11  1  0
  5 12  1  0
 11 13  2  0
 12 14  1  0
 12 15  2  0
 14 16  1  0
 11 17  1  0
 14 18  1  0
 16 19  1  0
 18 20  1  0
 19 20  1  0
 20 21  1  6
 21 22  1  0
 21 23  1  0
 23 24  1  0
 22 25  1  6
 22 26  1  0
 24 26  1  0
 26 27  1  1
 25 28  1  0
M  END
$$$$
111
     RDKit          3D

 28 30  0  0  0  0  0  0  0  0999 V2000
   74.5860   -1.2261  105.4439 O   0  0  0  0  0  0  0  0  0  0  0  0
   74.7300   -0.0631  104.7522 C   0  0  0  0  0  0  0  0  0  0  0  0
   75.6359    0.7654  104.9638 N   0  0  0  0  0  0  0  0  0  0  0  0
   74.0981   -0.1288  103.3927 C   0  0  2  0  0  0  0  0  0  0  0  0
   74.4728    0.9237  102.5115 C   0  0  1  0  0  0  0  0  0  0  0  0
   73.0095   -0.9625  103.1033 N   0  0  0  0  0  0  0  0  0  0  0  0
   75.4568    1.8602  102.8625 N   0  0  0  0  0  0  0  0  0  0  0  0
   73.9900    1.0739  101.1034 N   0  0  0  0  0  0  0  0  0  0  0  0
   76.0599    1.6014  104.0965 C   0  0  0  0  0  0  0  0  0  0  0  0
   72.0960   -1.3138  104.0251 C   0  0  0  0  0  0  0  0  0  0  0  0
   71.0583   -2.1592  103.7245 C   0  0  1  0  0  0  0  0  0  0  0  0
   74.4490    2.2185  100.6066 C   0  0  0  0  0  0  0  0  0  0  0  0
   69.9873   -1.6765  102.9114 C   0  0  2  0  0  0  0  0  0  0  0  0
   68.4856   -1.8140  103.4867 C   0  0  0  0  0  0  0  0  0  0  0  0
   75.4956    2.7934  101.5084 N   0  0  0  0  0  0  0  0  0  0  0  0
   70.0925   -1.2655  101.6401 O   0  0  0  0  0  0  0  0  0  0  0  0
   69.1176   -1.4809  100.7719 C   0  0  2  0  0  0  0  0  0  0  0  0
   72.0160   -0.8707  105.2357 O   0  0  0  0  0  0  0  0  0  0  0  0
   67.8238   -1.2202  101.1025 C   0  0  1  0  0  0  0  0  0  0  0  0
   74.8436    2.9867   99.5863 O   0  0  0  0  0  0  0  0  0  0  0  0
   67.5344   -1.6168  102.5466 O   0  0  0  0  0  0  0  0  0  0  0  0
   68.9644   -2.8628  100.2410 C   0  0  0  0  0  0  0  0  0  0  0  0
   71.4133   -3.3366  102.9071 O   0  0  0  0  0  0  0  0  0  0  0  0
   68.1196   -3.0640   99.2705 O   0  0  0  0  0  0  0  0  0  0  0  0
   68.6073   -2.8454  104.2930 O   0  0  0  0  0  0  0  0  0  0  0  0
   67.2261    0.0425  100.7273 C   0  0  2  0  0  0  0  0  0  0  0  0
   67.1585    0.4271   99.5493 O   0  0  0  0  0  0  0  0  0  0  0  0
   67.7228    1.2340  101.5940 C   0  0  0  0  0  0  0  0  0  0  0  0
  1  2  2  0
  2  3  1  0
  2  4  1  0
  4  5  1  0
  4  6  1  1
  5  7  1  0
  5  8  1  6
  3  9  1  0
  7  9  1  0
  6 10  1  0
 10 11  1  0
  8 12  1  0
 11 13  1  0
 13 14  1  0
  7 15  1  0
 12 15  1  0
 13 16  1  6
 16 17  1  0
 10 18  2  0
 17 19  1  0
 12 20  2  0
 14 21  1  0
 19 21  1  1
 17 22  1  1
 11 23  1  6
 22 24  1  0
 14 25  2  0
 19 26  1  0
 26 27  1  0
 26 28  1  1
M  END
$$$$
112
     RDKit          3D

 28 30  0  0  0  0  0  0  0  0999 V2000
   74.5860   -1.2261  105.4439 O   0  0  0  0  0  0  0  0  0  0  0  0
   74.7300   -0.0631  104.7522 C   0  0  0  0  0  0  0  0  0  0  0  0
   75.6359    0.7654  104.9638 N   0  0  0  0  0  0  0  0  0  0  0  0
   74.0981   -0.1288  103.3927 C   0  0  2  0  0  0  0  0  0  0  0  0
   74.4728    0.9237  102.5115 C   0  0  1  0  0  0  0  0  0  0  0  0
   73.0095   -0.9625  103.1033 N   0  0  0  0  0  0  0  0  0  0  0  0
   75.4568    1.8602  102.8625 N   0  0  0  0  0  0  0  0  0  0  0  0
   73.9900    1.0739  101.1034 N   0  0  0  0  0  0  0  0  0  0  0  0
   76.0599    1.6014  104.0965 C   0  0  0  0  0  0  0  0  0  0  0  0
   72.0960   -1.3138  104.0251 C   0  0  0  0  0  0  0  0  0  0  0  0
   71.0583   -2.1592  103.7245 C   0  0  1  0  0  0  0  0  0  0  0  0
   74.4490    2.2185  100.6066 C   0  0  0  0  0  0  0  0  0  0  0  0
   69.9873   -1.6765  102.9114 C   0  0  2  0  0  0  0  0  0  0  0  0
   68.4856   -1.8140  103.4867 C   0  0  1  0  0  0  0  0  0  0  0  0
   75.4956    2.7934  101.5084 N   0  0  0  0  0  0  0  0  0  0  0  0
   70.0925   -1.2655  101.6401 O   0  0  0  0  0  0  0  0  0  0  0  0
   69.1176   -1.4809  100.7719 C   0  0  2  0  0  0  0  0  0  0  0  0
   72.0160   -0.8707  105.2357 O   0  0  0  0  0  0  0  0  0  0  0  0
   67.8238   -1.2202  101.1025 C   0  0  1  0  0  0  0  0  0  0  0  0
   74.8436    2.9867   99.5863 O   0  0  0  0  0  0  0  0  0  0  0  0
   67.5344   -1.6168  102.5466 O   0  0  0  0  0  0  0  0  0  0  0  0
   68.4474   -2.9846  104.2186 O   0  0  0  0  0  0  0  0  0  0  0  0
   67.2985    0.2596  101.1613 C   0  0  0  0  0  0  0  0  0  0  0  0
   67.7027    1.0464  102.1034 O   0  0  0  0  0  0  0  0  0  0  0  0
   69.0051   -2.7473   99.9938 C   0  0  0  0  0  0  0  0  0  0  0  0
   66.8239    0.6660  100.0978 O   0  0  0  0  0  0  0  0  0  0  0  0
   68.0651   -2.9561   99.0400 O   0  0  0  0  0  0  0  0  0  0  0  0
   71.1834   -3.3290  102.9181 O   0  0  0  0  0  0  0  0  0  0  0  0
  1  2  2  0
  2  3  1  0
  2  4  1  0
  4  5  1  0
  4  6  1  1
  5  7  1  0
  5  8  1  6
  3  9  1  0
  7  9  1  0
  6 10  1  0
 10 11  1  0
  8 12  1  0
 11 13  1  0
 13 14  1  0
  7 15  1  0
 12 15  1  0
 13 16  1  6
 16 17  1  0
 10 18  2  0
 17 19  1  0
 12 20  2  0
 14 21  1  0
 19 21  1  0
 14 22  1  6
 19 23  1  1
 23 24  1  0
 17 25  1  1
 23 26  2  0
 25 27  1  0
 11 28  1  6
M  END
$$$$
12
     RDKit          3D

 12 14  0  0  0  0  0  0  0  0999 V2000
   67.3332    1.1660  101.7163 C   0  0  0  0  0  0  0  0  0  0  0  0
   67.4945   -0.0906  101.9822 N   0  0  0  0  0  0  0  0  0  0  0  0
   67.7362   -0.9994  100.9804 C   0  0  2  0  0  0  0  0  0  0  0  0
   67.4093    1.3940  100.2920 N   0  0  0  0  0  0  0  0  0  0  0  0
   67.9678   -2.2608  100.9327 N   0  0  0  0  0  0  0  0  0  0  0  0
   67.7504   -0.0270   99.7044 C   0  0  2  0  0  0  0  0  0  0  0  0
   67.8010   -0.3810   98.4100 N   0  0  0  0  0  0  0  0  0  0  0  0
   67.9103   -2.7164   99.5362 C   0  0  2  0  0  0  0  0  0  0  0  0
   68.1543   -4.0154   99.3328 N   0  0  0  0  0  0  0  0  0  0  0  0
   67.8915   -1.8489   98.4092 C   0  0  1  0  0  0  0  0  0  0  0  0
   67.8767   -2.6276   97.3991 N   0  0  0  0  0  0  0  0  0  0  0  0
   68.0488   -3.9336   97.8552 C   0  0  0  0  0  0  0  0  0  0  0  0
  1  2  1  0
  3  2  1  1
  1  4  1  0
  3  5  1  0
  3  6  1  0
  6  4  1  6
  6  7  1  0
  8  5  1  1
  8  9  1  0
 10  7  1  1
  8 10  1  0
 10 11  1  0
  9 12  1  0
 11 12  1  0
M  END
$$$$
13
     RDKit          3D

 12 12  0  0  0  0  0  0  0  0999 V2000
   75.3004    3.4199   99.8302 O   0  0  0  0  0  0  0  0  0  0  0  0
   74.9390    2.5853  100.8045 C   0  0  0  0  0  0  0  0  0  0  0  0
   74.9341    1.4255  100.9759 N   0  0  0  0  0  0  0  0  0  0  0  0
   74.5343    0.7109  102.1090 C   0  0  1  0  0  0  0  0  0  0  0  0
   74.2498    3.4570  101.8411 O   0  0  0  0  0  0  0  0  0  0  0  0
   74.5619    1.3207  103.3580 C   0  0  0  0  0  0  0  0  0  0  0  0
   74.1638    0.2511  104.4468 C   0  0  1  0  0  0  0  0  0  0  0  0
   74.0013   -0.6503  101.9780 C   0  0  0  0  0  0  0  0  0  0  0  0
   74.2726    0.7570  105.7637 O   0  0  0  0  0  0  0  0  0  0  0  0
   73.7000   -0.9637  104.2554 C   0  0  2  0  0  0  0  0  0  0  0  0
   73.5719   -1.3748  102.9524 C   0  0  0  0  0  0  0  0  0  0  0  0
   73.2476   -1.5948  105.3340 O   0  0  0  0  0  0  0  0  0  0  0  0
  1  2  2  0
  2  3  1  0
  4  3  1  6
  2  5  1  0
  4  6  1  0
  6  7  1  0
  4  8  1  0
  7  9  1  1
  7 10  1  0
  8 11  1  0
 10 11  1  0
 10 12  1  6
M  END
$$$$
14
     RDKit          3D

 13 14  0  0  0  0  0  0  0  0999 V2000
   74.8931   -0.5078  105.5960 N   0  0  0  0  0  0  0  0  0  0  0  0
   75.1936    0.1899  104.4736 C   0  0  1  0  0  0  0  0  0  0  0  0
   76.3235    0.8807  104.3381 N   0  0  0  0  0  0  0  0  0  0  0  0
   74.3264    0.0740  103.3440 C   0  0  1  0  0  0  0  0  0  0  0  0
   73.0829   -0.4974  103.5503 C   0  0  0  0  0  0  0  0  0  0  0  0
   74.7398    0.6176  102.2363 N   0  0  0  0  0  0  0  0  0  0  0  0
   73.5813   -1.0483  105.5536 C   0  0  0  0  0  0  0  0  0  0  0  0
   72.8864   -1.0041  104.5645 N   0  0  0  0  0  0  0  0  0  0  0  0
   72.2686   -0.6658  102.4795 O   0  0  0  0  0  0  0  0  0  0  0  0
   75.7587    1.4583  102.1514 C   0  0  2  0  0  0  0  0  0  0  0  0
   76.5900    1.5287  103.2532 C   0  0  0  0  0  0  0  0  0  0  0  0
   75.4587    2.1344  101.0008 N   0  0  0  0  0  0  0  0  0  0  0  0
   74.3580    2.6378  100.5158 C   0  0  0  0  0  0  0  0  0  0  0  0
  2  1  1  6
  2  3  1  0
  2  4  1  0
  4  5  1  0
  4  6  1  1
  1  7  1  0
  5  8  1  0
  7  8  1  0
  5  9  2  0
  6 10  1  0
  3 11  1  0
 10 11  1  0
 10 12  1  1
 12 13  1  0
M  END
$$$$
15
     RDKit          3D

 13 14  0  0  0  0  0  0  0  0999 V2000
   74.9088    2.6714   99.7708 O   0  0  0  0  0  0  0  0  0  0  0  0
   75.0074    2.7277  101.0306 C   0  0  0  0  0  0  0  0  0  0  0  0
   75.3265    3.5647  101.7233 O   0  0  0  0  0  0  0  0  0  0  0  0
   74.6036    1.3843  101.7023 C   0  0  1  0  0  0  0  0  0  0  0  0
   74.4783    0.2767  101.1353 N   0  0  0  0  0  0  0  0  0  0  0  0
   74.4895    1.3902  103.1269 C   0  0  2  0  0  0  0  0  0  0  0  0
   74.9621    2.0452  104.1551 C   0  0  0  0  0  0  0  0  0  0  0  0
   74.0097   -0.1068  103.2954 C   0  0  1  0  0  0  0  0  0  0  0  0
   74.1117   -0.7794  101.8787 N   0  0  0  0  0  0  0  0  0  0  0  0
   73.8114   -0.6984  104.4885 C   0  0  0  0  0  0  0  0  0  0  0  0
   74.6559    1.3816  105.4617 C   0  0  0  0  0  0  0  0  0  0  0  0
   73.3106   -1.7903  104.6501 O   0  0  0  0  0  0  0  0  0  0  0  0
   74.2628    0.0679  105.5521 C   0  0  0  0  0  0  0  0  0  0  0  0
  1  2  2  0
  2  3  1  0
  4  2  1  1
  4  5  1  0
  4  6  1  0
  6  7  1  1
  6  8  1  0
  5  9  1  0
  8  9  1  6
  8 10  1  0
  7 11  1  0
 10 12  1  0
 10 13  1  0
 11 13  1  0
M  END
$$$$
16
     RDKit          3D

 13 13  0  0  0  0  0  0  0  0999 V2000
   75.2133    2.3059  101.8228 N   0  0  0  0  0  0  0  0  0  0  0  0
   74.7608    2.4815  100.5571 C   0  0  0  0  0  0  0  0  0  0  0  0
   75.0141    1.1362  102.4401 C   0  0  2  0  0  0  0  0  0  0  0  0
   75.3037    3.4421   99.8167 O   0  0  0  0  0  0  0  0  0  0  0  0
   74.0189    0.2930  101.9145 O   0  0  0  0  0  0  0  0  0  0  0  0
   73.4903   -0.7897  102.6909 C   0  0  2  0  0  0  0  0  0  0  0  0
   72.3986   -1.3885  102.3930 O   0  0  0  0  0  0  0  0  0  0  0  0
   73.2828   -0.1771  104.1885 C   0  0  2  0  0  0  0  0  0  0  0  0
   74.6085    0.3540  104.7155 C   0  0  0  0  0  0  0  0  0  0  0  0
   75.2856    1.2480  103.8895 C   0  0  1  0  0  0  0  0  0  0  0  0
   72.7369   -1.3716  104.9500 O   0  0  0  0  0  0  0  0  0  0  0  0
   76.3673    1.8449  104.2960 O   0  0  0  0  0  0  0  0  0  0  0  0
   74.9917   -0.1818  105.7733 O   0  0  0  0  0  0  0  0  0  0  0  0
  1  2  1  0
  3  1  1  1
  2  4  2  0
  3  5  1  0
  5  6  1  0
  6  7  1  6
  6  8  1  0
  8  9  1  0
  3 10  1  0
  9 10  1  0
  8 11  1  1
 10 12  1  6
  9 13  2  0
M  END
$$$$
17
     RDKit          3D

 14 15  0  0  0  0  0  0  0  0999 V2000
   75.0068    2.5626  101.0037 C   0  0  0  0  0  0  0  0  0  0  0  0
   74.5029    1.5050  101.3884 N   0  0  0  0  0  0  0  0  0  0  0  0
   74.8876    0.6972  102.4487 C   0  0  2  0  0  0  0  0  0  0  0  0
   74.6347    3.2002   99.9739 O   0  0  0  0  0  0  0  0  0  0  0  0
   74.0247   -0.3040  103.0171 C   0  0  2  0  0  0  0  0  0  0  0  0
   73.0509   -0.8408  102.2880 O   0  0  0  0  0  0  0  0  0  0  0  0
   74.1313   -0.5684  104.4283 C   0  0  1  0  0  0  0  0  0  0  0  0
   75.1608    0.0613  105.1450 N   0  0  0  0  0  0  0  0  0  0  0  0
   76.0689    2.9549  101.8552 N   0  0  0  0  0  0  0  0  0  0  0  0
   75.9869    0.8474  104.3678 C   0  0  0  0  0  0  0  0  0  0  0  0
   77.0447    1.2774  105.0990 N   0  0  0  0  0  0  0  0  0  0  0  0
   73.2689   -1.1580  105.1908 N   0  0  0  0  0  0  0  0  0  0  0  0
   75.8734    1.1564  103.1252 N   0  0  0  0  0  0  0  0  0  0  0  0
   76.5844    2.0109  102.6336 C   0  0  0  0  0  0  0  0  0  0  0  0
  1  2  1  0
  3  2  1  1
  1  4  2  0
  3  5  1  0
  5  6  1  1
  5  7  1  0
  7  8  1  0
  1  9  1  0
  8 10  1  0
 10 11  1  0
  7 12  1  1
  3 13  1  0
 10 13  1  0
  9 14  1  0
 13 14  1  0
M  END
$$$$
18
     RDKit          3D

 14 15  0  0  0  0  0  0  0  0999 V2000
   67.2823    0.8169  101.6379 N   0  0  0  0  0  0  0  0  0  0  0  0
   68.0497    0.9701  100.8067 C   0  0  0  0  0  0  0  0  0  0  0  0
   67.3936   -0.5662  102.0090 N   0  0  0  0  0  0  0  0  0  0  0  0
   68.2387   -1.1257  101.4550 C   0  0  1  0  0  0  0  0  0  0  0  0
   68.7030   -2.4259  101.4949 C   0  0  2  0  0  0  0  0  0  0  0  0
   68.6991   -0.1619  100.4269 N   0  0  0  0  0  0  0  0  0  0  0  0
   68.6570   -3.4221  100.4880 C   0  0  0  0  0  0  0  0  0  0  0  0
   68.6842   -2.9490  102.8232 C   0  0  0  0  0  0  0  0  0  0  0  0
   69.0113   -4.7331  100.9030 C   0  0  0  0  0  0  0  0  0  0  0  0
   69.1398   -5.1226  102.1796 C   0  0  0  0  0  0  0  0  0  0  0  0
   69.2079   -5.6939   99.7832 C   0  0  0  0  0  0  0  0  0  0  0  0
   69.7063   -5.1015   98.6741 O   0  0  0  0  0  0  0  0  0  0  0  0
   68.8213   -6.8183   99.8249 O   0  0  0  0  0  0  0  0  0  0  0  0
   69.0369   -4.1872  103.1885 C   0  0  0  0  0  0  0  0  0  0  0  0
  1  2  1  0
  1  3  1  0
  4  3  1  6
  4  5  1  0
  2  6  1  0
  4  6  1  0
  5  7  1  6
  5  8  1  0
  7  9  1  0
  9 10  1  0
  9 11  1  0
 11 12  2  0
 11 13  1  0
  8 14  1  0
 10 14  1  0
M  END
$$$$
19
     RDKit          3D

 14 14  0  0  0  0  0  0  0  0999 V2000
   75.4341    3.4210   99.6461 O   0  0  0  0  0  0  0  0  0  0  0  0
   75.0294    2.6338  100.6869 C   0  0  0  0  0  0  0  0  0  0  0  0
   75.7273    1.6225  101.1897 N   0  0  0  0  0  0  0  0  0  0  0  0
   75.2724    0.7860  102.1865 C   0  0  2  0  0  0  0  0  0  0  0  0
   73.6272    2.6155  101.0179 O   0  0  0  0  0  0  0  0  0  0  0  0
   74.2750   -0.1281  102.0511 C   0  0  0  0  0  0  0  0  0  0  0  0
   73.6733   -0.8107  103.0807 C   0  0  0  0  0  0  0  0  0  0  0  0
   73.9031   -0.3681  104.1593 C   0  0  2  0  0  0  0  0  0  0  0  0
   75.2924    1.1368  103.6469 C   0  0  0  0  0  0  0  0  0  0  0  0
   74.7695    0.5259  104.6279 C   0  0  0  0  0  0  0  0  0  0  0  0
   73.0785   -1.1611  105.4148 C   0  0  0  0  0  0  0  0  0  0  0  0
   71.8005   -1.5368  105.1320 C   0  0  0  0  0  0  0  0  0  0  0  0
   71.2029   -2.2761  106.0956 O   0  0  0  0  0  0  0  0  0  0  0  0
   71.0157   -1.1179  104.1167 O   0  0  0  0  0  0  0  0  0  0  0  0
  1  2  2  0
  2  3  1  0
  4  3  1  6
  2  5  1  0
  4  6  1  0
  6  7  1  0
  7  8  1  0
  4  9  1  0
  8 10  1  0
  9 10  1  0
  8 11  1  1
 11 12  1  0
 12 13  1  0
 12 14  2  0
M  END
$$$$
2
     RDKit          3D

  9  9  0  0  0  0  0  0  0  0999 V2000
   75.0086    2.8900  101.2107 N   0  0  0  0  0  0  0  0  0  0  0  0
   74.7770    1.7400  101.6968 C   0  0  1  0  0  0  0  0  0  0  0  0
   75.5620    2.9664  100.0204 O   0  0  0  0  0  0  0  0  0  0  0  0
   75.0287    1.2752  102.9457 C   0  0  0  0  0  0  0  0  0  0  0  0
   73.5597    0.9885  101.1221 N   0  0  0  0  0  0  0  0  0  0  0  0
   73.3111   -0.1499  101.7472 C   0  0  0  0  0  0  0  0  0  0  0  0
   73.7964   -0.5398  102.9397 N   0  0  0  0  0  0  0  0  0  0  0  0
   74.6092    0.3064  103.5419 C   0  0  1  0  0  0  0  0  0  0  0  0
   75.1771   -0.0796  104.9148 C   0  0  0  0  0  0  0  0  0  0  0  0
  2  1  1  1
  1  3  1  0
  2  4  1  0
  2  5  1  0
  5  6  1  0
  6  7  1  0
  4  8  1  0
  7  8  1  0
  8  9  1  6
M  END
$$$$
20
     RDKit          3D

 14 15  0  0  0  0  0  0  0  0999 V2000
   75.0068    2.5626  101.0037 C   0  0  0  0  0  0  0  0  0  0  0  0
   74.5029    1.5050  101.3884 N   0  0  0  0  0  0  0  0  0  0  0  0
   74.8876    0.6972  102.4487 C   0  0  1  0  0  0  0  0  0  0  0  0
   74.6347    3.2002   99.9739 O   0  0  0  0  0  0  0  0  0  0  0  0
   75.8204    3.1585  101.9925 N   0  0  0  0  0  0  0  0  0  0  0  0
   75.8047    1.1794  103.3638 C   0  0  1  0  0  0  0  0  0  0  0  0
   76.2707    2.3874  103.0946 C   0  0  0  0  0  0  0  0  0  0  0  0
   74.2287   -0.5708  102.7764 N   0  0  0  0  0  0  0  0  0  0  0  0
   74.6263   -0.7619  104.0964 C   0  0  0  0  0  0  0  0  0  0  0  0
   75.9439    0.2200  104.4709 C   0  0  0  0  0  0  0  0  0  0  0  0
   74.0219   -1.1176  105.2238 N   0  0  0  0  0  0  0  0  0  0  0  0
   72.6682   -1.0556  105.5851 C   0  0  0  0  0  0  0  0  0  0  0  0
   71.7666   -0.8987  104.7140 O   0  0  0  0  0  0  0  0  0  0  0  0
   72.2453   -1.3148  106.9162 N   0  0  0  0  0  0  0  0  0  0  0  0
  1  2  1  0
  3  2  1  1
  1  4  2  0
  1  5  1  0
  3  6  1  0
  5  7  1  0
  6  7  1  1
  3  8  1  0
  8  9  1  0
  6 10  1  0
  9 10  1  0
  9 11  2  3
 11 12  1  0
 12 13  2  0
 12 14  1  0
M  END
$$$$
21
     RDKit          3D

 14 15  0  0  0  0  0  0  0  0999 V2000
   75.0068    2.5626  101.0037 C   0  0  0  0  0  0  0  0  0  0  0  0
   74.5029    1.5050  101.3884 N   0  0  0  0  0  0  0  0  0  0  0  0
   74.8876    0.6972  102.4487 C   0  0  1  0  0  0  0  0  0  0  0  0
   74.6347    3.2002   99.9739 O   0  0  0  0  0  0  0  0  0  0  0  0
   75.8204    3.1585  101.9925 N   0  0  0  0  0  0  0  0  0  0  0  0
   75.8047    1.1794  103.3638 C   0  0  1  0  0  0  0  0  0  0  0  0
   76.2707    2.3874  103.0946 C   0  0  0  0  0  0  0  0  0  0  0  0
   74.2287   -0.5708  102.7764 N   0  0  0  0  0  0  0  0  0  0  0  0
   74.6263   -0.7619  104.0964 C   0  0  0  0  0  0  0  0  0  0  0  0
   75.9439    0.2200  104.4709 C   0  0  0  0  0  0  0  0  0  0  0  0
   74.0219   -1.1176  105.2238 N   0  0  0  0  0  0  0  0  0  0  0  0
   72.6682   -1.0556  105.5851 C   0  0  0  0  0  0  0  0  0  0  0  0
   71.7666   -0.8987  104.7140 O   0  0  0  0  0  0  0  0  0  0  0  0
   72.2453   -1.3148  106.9162 C   0  0  0  0  0  0  0  0  0  0  0  0
  1  2  1  0
  3  2  1  1
  1  4  2  0
  1  5  1  0
  3  6  1  0
  5  7  1  0
  6  7  1  1
  3  8  1  0
  8  9  1  0
  6 10  1  0
  9 10  1  0
  9 11  2  3
 11 12  1  0
 12 13  2  0
 12 14  1  0
M  END
$$$$
22
     RDKit          3D

 15 15  0  0  0  0  0  0  0  0999 V2000
   75.3004    3.4199   99.8302 O   0  0  0  0  0  0  0  0  0  0  0  0
   74.9390    2.5853  100.8045 C   0  0  0  0  0  0  0  0  0  0  0  0
   74.9341    1.4255  100.9759 N   0  0  0  0  0  0  0  0  0  0  0  0
   74.5343    0.7109  102.1090 C   0  0  1  0  0  0  0  0  0  0  0  0
   74.2498    3.4570  101.8411 O   0  0  0  0  0  0  0  0  0  0  0  0
   74.5619    1.3207  103.3580 C   0  0  0  0  0  0  0  0  0  0  0  0
   74.1638    0.2511  104.4468 C   0  0  0  0  0  0  0  0  0  0  0  0
   74.0460   -0.6050  101.9190 C   0  0  2  0  0  0  0  0  0  0  0  0
   73.9278   -1.1100  100.6188 O   0  0  0  0  0  0  0  0  0  0  0  0
   73.4202   -1.2563  102.9348 C   0  0  0  0  0  0  0  0  0  0  0  0
   73.4133   -0.7675  104.0533 C   0  0  1  0  0  0  0  0  0  0  0  0
   73.6059   -2.5047  100.4751 C   0  0  0  0  0  0  0  0  0  0  0  0
   72.7578   -1.2727  105.2312 O   0  0  0  0  0  0  0  0  0  0  0  0
   73.4631   -2.8722   99.2309 C   0  0  0  0  0  0  0  0  0  0  0  0
   72.6019   -3.7637   98.9170 O   0  0  0  0  0  0  0  0  0  0  0  0
  1  2  2  0
  2  3  1  0
  4  3  1  6
  2  5  1  0
  4  6  1  0
  6  7  1  0
  4  8  1  0
  8  9  1  6
  8 10  1  0
  7 11  1  0
 10 11  1  0
  9 12  1  0
 11 13  1  1
 12 14  1  0
 14 15  1  0
M  END
$$$$
23
     RDKit          3D

 15 16  0  0  0  0  0  0  0  0999 V2000
   67.2823    0.8169  101.6379 N   0  0  0  0  0  0  0  0  0  0  0  0
   68.0497    0.9701  100.8067 C   0  0  0  0  0  0  0  0  0  0  0  0
   67.3936   -0.5662  102.0090 N   0  0  0  0  0  0  0  0  0  0  0  0
   68.2387   -1.1257  101.4550 C   0  0  1  0  0  0  0  0  0  0  0  0
   68.7030   -2.4259  101.4949 C   0  0  2  0  0  0  0  0  0  0  0  0
   68.6991   -0.1619  100.4269 N   0  0  0  0  0  0  0  0  0  0  0  0
   68.6570   -3.4221  100.4880 C   0  0  0  0  0  0  0  0  0  0  0  0
   68.6842   -2.9490  102.8232 C   0  0  2  0  0  0  0  0  0  0  0  0
   69.0113   -4.7331  100.9030 C   0  0  2  0  0  0  0  0  0  0  0  0
   69.1550   -5.7223   99.7776 C   0  0  0  0  0  0  0  0  0  0  0  0
   69.4305   -6.8811  100.1253 O   0  0  0  0  0  0  0  0  0  0  0  0
   69.1483   -5.0606  102.2206 C   0  0  0  0  0  0  0  0  0  0  0  0
   68.8894   -5.2951   98.6412 O   0  0  0  0  0  0  0  0  0  0  0  0
   68.6527   -1.8793  103.9270 N   0  0  0  0  0  0  0  0  0  0  0  0
   69.1425   -4.1401  103.1703 C   0  0  0  0  0  0  0  0  0  0  0  0
  1  2  1  0
  1  3  1  0
  4  3  1  6
  4  5  1  0
  2  6  1  0
  4  6  1  0
  5  7  1  6
  5  8  1  0
  7  9  1  0
  9 10  1  1
 10 11  2  0
  9 12  1  0
 10 13  1  0
  8 14  1  1
  8 15  1  0
 12 15  1  0
M  END
$$$$
24
     RDKit          3D

 15 16  0  0  0  0  0  0  0  0999 V2000
   75.4341    3.4210   99.6461 O   0  0  0  0  0  0  0  0  0  0  0  0
   75.0294    2.6338  100.6869 C   0  0  0  0  0  0  0  0  0  0  0  0
   75.7273    1.6225  101.1897 N   0  0  0  0  0  0  0  0  0  0  0  0
   75.2724    0.7860  102.1865 C   0  0  2  0  0  0  0  0  0  0  0  0
   73.7028    2.8150  101.1667 O   0  0  0  0  0  0  0  0  0  0  0  0
   74.2681   -0.1396  102.0304 C   0  0  0  0  0  0  0  0  0  0  0  0
   73.8267   -0.5295  100.7671 O   0  0  0  0  0  0  0  0  0  0  0  0
   75.7683    1.2701  103.4854 N   0  0  0  0  0  0  0  0  0  0  0  0
   73.6740   -0.6898  103.1817 N   0  0  0  0  0  0  0  0  0  0  0  0
   72.5993   -1.5321  103.1632 C   0  0  0  0  0  0  0  0  0  0  0  0
   74.1318   -0.1401  104.4794 C   0  0  2  0  0  0  0  0  0  0  0  0
   75.1152    0.5679  104.5228 C   0  0  0  0  0  0  0  0  0  0  0  0
   73.5321   -0.7958  105.5093 N   0  0  0  0  0  0  0  0  0  0  0  0
   72.4023   -1.4079  105.2306 C   0  0  0  0  0  0  0  0  0  0  0  0
   71.8777   -1.8024  104.1572 N   0  0  0  0  0  0  0  0  0  0  0  0
  1  2  2  0
  2  3  1  0
  4  3  1  6
  2  5  1  0
  4  6  1  0
  6  7  2  0
  4  8  1  0
  6  9  1  0
  9 10  1  0
  9 11  1  0
  8 12  1  0
 11 12  1  1
 11 13  1  0
 13 14  1  0
 10 15  1  0
 14 15  1  0
M  END
$$$$
25
     RDKit          3D

 15 16  0  0  0  0  0  0  0  0999 V2000
   74.8931   -0.5078  105.5960 N   0  0  0  0  0  0  0  0  0  0  0  0
   75.1936    0.1899  104.4736 C   0  0  1  0  0  0  0  0  0  0  0  0
   76.3235    0.8807  104.3381 N   0  0  0  0  0  0  0  0  0  0  0  0
   74.3264    0.0740  103.3440 C   0  0  1  0  0  0  0  0  0  0  0  0
   73.0829   -0.4974  103.5503 C   0  0  0  0  0  0  0  0  0  0  0  0
   74.7398    0.6176  102.2363 N   0  0  0  0  0  0  0  0  0  0  0  0
   73.5813   -1.0483  105.5536 C   0  0  0  0  0  0  0  0  0  0  0  0
   72.8864   -1.0041  104.5645 N   0  0  0  0  0  0  0  0  0  0  0  0
   72.2686   -0.6658  102.4795 O   0  0  0  0  0  0  0  0  0  0  0  0
   75.7587    1.4583  102.1514 C   0  0  1  0  0  0  0  0  0  0  0  0
   76.5900    1.5287  103.2532 C   0  0  0  0  0  0  0  0  0  0  0  0
   75.9758    2.1415  100.9877 N   0  0  0  0  0  0  0  0  0  0  0  0
   74.9462    2.9662  100.3871 C   0  0  0  0  0  0  0  0  0  0  0  0
   73.8339    3.1032  100.9148 O   0  0  0  0  0  0  0  0  0  0  0  0
   75.1493    3.5305   99.2090 O   0  0  0  0  0  0  0  0  0  0  0  0
  2  1  1  6
  2  3  1  0
  2  4  1  0
  4  5  1  0
  4  6  1  1
  1  7  1  0
  5  8  1  0
  7  8  1  0
  5  9  2  0
  6 10  1  0
  3 11  1  0
 10 11  1  0
 10 12  1  6
 12 13  1  0
 13 14  2  0
 13 15  1  0
M  END
$$$$
26
     RDKit          3D

 16 17  0  0  0  0  0  0  0  0999 V2000
   75.4341    3.4210   99.6461 O   0  0  0  0  0  0  0  0  0  0  0  0
   75.0294    2.6338  100.6869 C   0  0  0  0  0  0  0  0  0  0  0  0
   75.7273    1.6225  101.1897 N   0  0  0  0  0  0  0  0  0  0  0  0
   75.2724    0.7860  102.1865 C   0  0  2  0  0  0  0  0  0  0  0  0
   73.6272    2.6155  101.0179 O   0  0  0  0  0  0  0  0  0  0  0  0
   74.2750   -0.1281  102.0511 C   0  0  0  0  0  0  0  0  0  0  0  0
   73.6733   -0.8107  103.0807 C   0  0  1  0  0  0  0  0  0  0  0  0
   73.9031   -0.3681  104.1593 C   0  0  2  0  0  0  0  0  0  0  0  0
   75.2924    1.1368  103.6469 C   0  0  0  0  0  0  0  0  0  0  0  0
   74.7695    0.5259  104.6279 C   0  0  0  0  0  0  0  0  0  0  0  0
   72.4786   -1.7170  102.7580 C   0  0  0  0  0  0  0  0  0  0  0  0
   73.0820   -1.0981  105.4134 N   0  0  0  0  0  0  0  0  0  0  0  0
   71.7443   -2.1653  103.8491 N   0  0  0  0  0  0  0  0  0  0  0  0
   72.1008   -2.0806  101.6151 O   0  0  0  0  0  0  0  0  0  0  0  0
   71.9016   -1.7661  104.9704 C   0  0  0  0  0  0  0  0  0  0  0  0
   71.1047   -2.2517  105.9559 N   0  0  0  0  0  0  0  0  0  0  0  0
  1  2  2  0
  2  3  1  0
  4  3  1  6
  2  5  1  0
  4  6  1  0
  7  6  1  6
  7  8  1  0
  4  9  1  0
  8 10  1  1
  9 10  1  0
  7 11  1  0
  8 12  1  0
 11 13  1  0
 11 14  2  0
 12 15  2  0
 13 15  1  0
 15 16  1  0
M  END
$$$$
27
     RDKit          3D

 16 17  0  0  0  0  0  0  0  0999 V2000
   75.4341    3.4210   99.6461 O   0  0  0  0  0  0  0  0  0  0  0  0
   75.0294    2.6338  100.6869 C   0  0  0  0  0  0  0  0  0  0  0  0
   75.7273    1.6225  101.1897 N   0  0  0  0  0  0  0  0  0  0  0  0
   75.2724    0.7860  102.1865 C   0  0  2  0  0  0  0  0  0  0  0  0
   73.6272    2.6155  101.0179 O   0  0  0  0  0  0  0  0  0  0  0  0
   74.2750   -0.1281  102.0511 C   0  0  0  0  0  0  0  0  0  0  0  0
   73.6733   -0.8107  103.0807 C   0  0  1  0  0  0  0  0  0  0  0  0
   73.9031   -0.3681  104.1593 C   0  0  2  0  0  0  0  0  0  0  0  0
   75.2924    1.1368  103.6469 C   0  0  0  0  0  0  0  0  0  0  0  0
   74.7695    0.5259  104.6279 C   0  0  0  0  0  0  0  0  0  0  0  0
   72.4786   -1.7170  102.7580 C   0  0  0  0  0  0  0  0  0  0  0  0
   73.0820   -1.0981  105.4134 N   0  0  0  0  0  0  0  0  0  0  0  0
   71.7443   -2.1653  103.8491 N   0  0  0  0  0  0  0  0  0  0  0  0
   72.1008   -2.0806  101.6151 O   0  0  0  0  0  0  0  0  0  0  0  0
   72.0284   -1.8114  105.1431 C   0  0  1  0  0  0  0  0  0  0  0  0
   71.2891   -2.2372  106.1087 N   0  0  0  0  0  0  0  0  0  0  0  0
  1  2  2  0
  2  3  1  0
  4  3  1  6
  2  5  1  0
  4  6  1  0
  7  6  1  6
  7  8  1  0
  4  9  1  0
  8 10  1  1
  9 10  1  0
  7 11  1  0
  8 12  1  0
 11 13  1  0
 11 14  2  0
 12 15  1  0
 13 15  1  0
 15 16  1  1
M  END
$$$$
28
     RDKit          3D

 16 17  0  0  0  0  0  0  0  0999 V2000
   67.2823    0.8169  101.6379 N   0  0  0  0  0  0  0  0  0  0  0  0
   68.0497    0.9701  100.8067 C   0  0  0  0  0  0  0  0  0  0  0  0
   67.3936   -0.5662  102.0090 N   0  0  0  0  0  0  0  0  0  0  0  0
   68.2387   -1.1257  101.4550 C   0  0  1  0  0  0  0  0  0  0  0  0
   68.7030   -2.4259  101.4949 C   0  0  2  0  0  0  0  0  0  0  0  0
   68.6991   -0.1619  100.4269 N   0  0  0  0  0  0  0  0  0  0  0  0
   68.6570   -3.4221  100.4880 C   0  0  0  0  0  0  0  0  0  0  0  0
   68.6842   -2.9490  102.8232 C   0  0  0  0  0  0  0  0  0  0  0  0
   69.0113   -4.7331  100.9030 C   0  0  2  0  0  0  0  0  0  0  0  0
   69.1550   -5.7223   99.7776 C   0  0  0  0  0  0  0  0  0  0  0  0
   69.4305   -6.8811  100.1253 O   0  0  0  0  0  0  0  0  0  0  0  0
   69.1483   -5.0606  102.2206 C   0  0  0  0  0  0  0  0  0  0  0  0
   68.8894   -5.2951   98.6412 O   0  0  0  0  0  0  0  0  0  0  0  0
   69.0599   -4.1817  103.1852 C   0  0  2  0  0  0  0  0  0  0  0  0
   69.2483   -4.4615  104.5659 O   0  0  0  0  0  0  0  0  0  0  0  0
   69.8669   -3.5397  105.3332 C   0  0  0  0  0  0  0  0  0  0  0  0
  1  2  1  0
  1  3  1  0
  4  3  1  6
  4  5  1  0
  2  6  1  0
  4  6  1  0
  5  7  1  6
  5  8  1  0
  7  9  1  0
  9 10  1  1
 10 11  2  0
  9 12  1  0
 10 13  1  0
  8 14  1  0
 12 14  1  0
 14 15  1  1
 15 16  1  0
M  END
$$$$
29
     RDKit          3D

 16 17  0  0  0  0  0  0  0  0999 V2000
   67.2823    0.8169  101.6379 N   0  0  0  0  0  0  0  0  0  0  0  0
   68.0497    0.9701  100.8067 C   0  0  0  0  0  0  0  0  0  0  0  0
   67.3936   -0.5662  102.0090 N   0  0  0  0  0  0  0  0  0  0  0  0
   68.2387   -1.1257  101.4550 C   0  0  0  0  0  0  0  0  0  0  0  0
   68.7290   -0.1114  100.4381 N   0  0  0  0  0  0  0  0  0  0  0  0
   68.7384   -2.4257  101.5807 C   0  0  2  0  0  0  0  0  0  0  0  0
   68.7870   -3.3741  100.5114 C   0  0  1  0  0  0  0  0  0  0  0  0
   68.5869   -2.9628  102.8166 C   0  0  0  0  0  0  0  0  0  0  0  0
   68.9197   -4.3214  103.0111 C   0  0  1  0  0  0  0  0  0  0  0  0
   69.0259   -4.7560  104.3939 O   0  0  0  0  0  0  0  0  0  0  0  0
   69.0607   -5.2505  102.0922 C   0  0  2  0  0  0  0  0  0  0  0  0
   68.8451   -2.8850   99.1645 O   0  0  0  0  0  0  0  0  0  0  0  0
   69.4816   -6.5734  102.3190 O   0  0  0  0  0  0  0  0  0  0  0  0
   69.1381   -4.7035  100.7363 C   0  0  1  0  0  0  0  0  0  0  0  0
   69.3670   -5.6214   99.5613 O   0  0  0  0  0  0  0  0  0  0  0  0
   69.2674   -3.8068  105.4136 C   0  0  0  0  0  0  0  0  0  0  0  0
  1  2  1  0
  1  3  1  0
  3  4  1  0
  2  5  1  0
  4  5  1  0
  6  4  1  6
  6  7  1  0
  6  8  1  0
  8  9  1  0
  9 10  1  1
  9 11  1  0
  7 12  1  6
 11 13  1  1
  7 14  1  0
 11 14  1  0
 14 15  1  6
 10 16  1  0
M  END
$$$$
3
     RDKit          3D

  9  8  0  0  0  0  0  0  0  0999 V2000
   74.9088    2.6714   99.7708 O   0  0  0  0  0  0  0  0  0  0  0  0
   75.0074    2.7277  101.0306 C   0  0  0  0  0  0  0  0  0  0  0  0
   74.6502    1.4204  101.6522 C   0  0  2  0  0  0  0  0  0  0  0  0
   74.8001    1.3557  103.0487 C   0  0  1  0  0  0  0  0  0  0  0  0
   75.1497    0.3354  101.0066 O   0  0  0  0  0  0  0  0  0  0  0  0
   74.0447    0.0993  103.6623 C   0  0  0  0  0  0  0  0  0  0  0  0
   76.1371    1.1096  103.6210 O   0  0  0  0  0  0  0  0  0  0  0  0
   74.1522   -0.0952  105.0538 O   0  0  0  0  0  0  0  0  0  0  0  0
   73.4678   -0.8226  102.9606 O   0  0  0  0  0  0  0  0  0  0  0  0
  1  2  2  0
  2  3  1  0
  3  4  1  0
  3  5  1  6
  4  6  1  0
  4  7  1  6
  6  8  1  0
  6  9  2  0
M  END
$$$$
30
     RDKit          3D

 16 17  0  0  0  0  0  0  0  0999 V2000
   67.2823    0.8169  101.6379 N   0  0  0  0  0  0  0  0  0  0  0  0
   68.0497    0.9701  100.8067 C   0  0  0  0  0  0  0  0  0  0  0  0
   67.3936   -0.5662  102.0090 N   0  0  0  0  0  0  0  0  0  0  0  0
   68.2387   -1.1257  101.4550 C   0  0  1  0  0  0  0  0  0  0  0  0
   68.7030   -2.4259  101.4949 C   0  0  2  0  0  0  0  0  0  0  0  0
   68.6991   -0.1619  100.4269 N   0  0  0  0  0  0  0  0  0  0  0  0
   68.6570   -3.4221  100.4880 C   0  0  0  0  0  0  0  0  0  0  0  0
   68.6842   -2.9490  102.8232 C   0  0  2  0  0  0  0  0  0  0  0  0
   69.0113   -4.7331  100.9030 C   0  0  2  0  0  0  0  0  0  0  0  0
   69.1550   -5.7223   99.7776 C   0  0  0  0  0  0  0  0  0  0  0  0
   69.4305   -6.8811  100.1253 O   0  0  0  0  0  0  0  0  0  0  0  0
   69.1483   -5.0606  102.2206 C   0  0  2  0  0  0  0  0  0  0  0  0
   68.8894   -5.2951   98.6412 O   0  0  0  0  0  0  0  0  0  0  0  0
   68.6527   -1.8793  103.9270 N   0  0  0  0  0  0  0  0  0  0  0  0
   69.4929   -6.4569  102.6129 O   0  0  0  0  0  0  0  0  0  0  0  0
   68.9123   -4.1624  103.2261 C   0  0  0  0  0  0  0  0  0  0  0  0
  1  2  1  0
  1  3  1  0
  4  3  1  6
  4  5  1  0
  2  6  1  0
  4  6  1  0
  5  7  1  6
  5  8  1  0
  7  9  1  0
  9 10  1  1
 10 11  2  0
  9 12  1  0
 10 13  1  0
  8 14  1  1
 12 15  1  1
  8 16  1  0
 12 16  1  0
M  END
$$$$
31
     RDKit          3D

 17 18  0  0  0  0  0  0  0  0999 V2000
   67.2823    0.8169  101.6379 N   0  0  0  0  0  0  0  0  0  0  0  0
   68.0497    0.9701  100.8067 C   0  0  0  0  0  0  0  0  0  0  0  0
   67.3936   -0.5662  102.0090 N   0  0  0  0  0  0  0  0  0  0  0  0
   68.2387   -1.1257  101.4550 C   0  0  1  0  0  0  0  0  0  0  0  0
   68.7030   -2.4259  101.4949 C   0  0  2  0  0  0  0  0  0  0  0  0
   68.6991   -0.1619  100.4269 N   0  0  0  0  0  0  0  0  0  0  0  0
   68.6570   -3.4221  100.4880 C   0  0  0  0  0  0  0  0  0  0  0  0
   68.6842   -2.9490  102.8232 C   0  0  0  0  0  0  0  0  0  0  0  0
   69.0113   -4.7331  100.9030 C   0  0  2  0  0  0  0  0  0  0  0  0
   69.1550   -5.7223   99.7776 C   0  0  0  0  0  0  0  0  0  0  0  0
   69.4305   -6.8811  100.1253 O   0  0  0  0  0  0  0  0  0  0  0  0
   69.1483   -5.0606  102.2206 C   0  0  0  0  0  0  0  0  0  0  0  0
   68.8894   -5.2951   98.6412 O   0  0  0  0  0  0  0  0  0  0  0  0
   69.0599   -4.1817  103.1852 C   0  0  2  0  0  0  0  0  0  0  0  0
   69.2483   -4.4615  104.5659 C   0  0  0  0  0  0  0  0  0  0  0  0
   68.7768   -3.6221  105.4363 O   0  0  0  0  0  0  0  0  0  0  0  0
   69.8526   -5.4932  105.0262 O   0  0  0  0  0  0  0  0  0  0  0  0
  1  2  1  0
  1  3  1  0
  4  3  1  6
  4  5  1  0
  2  6  1  0
  4  6  1  0
  5  7  1  6
  5  8  1  0
  7  9  1  0
  9 10  1  1
 10 11  2  0
  9 12  1  0
 10 13  1  0
  8 14  1  0
 12 14  1  0
 14 15  1  1
 15 16  1  0
 15 17  2  0
M  END
$$$$
32
     RDKit          3D

 18 19  0  0  0  0  0  0  0  0999 V2000
   75.4341    3.4210   99.6461 O   0  0  0  0  0  0  0  0  0  0  0  0
   75.0294    2.6338  100.6869 C   0  0  0  0  0  0  0  0  0  0  0  0
   75.7273    1.6225  101.1897 N   0  0  0  0  0  0  0  0  0  0  0  0
   75.2724    0.7860  102.1865 C   0  0  2  0  0  0  0  0  0  0  0  0
   73.6272    2.6155  101.0179 O   0  0  0  0  0  0  0  0  0  0  0  0
   74.2750   -0.1281  102.0511 C   0  0  0  0  0  0  0  0  0  0  0  0
   73.6733   -0.8107  103.0807 C   0  0  1  0  0  0  0  0  0  0  0  0
   73.9031   -0.3681  104.1593 C   0  0  2  0  0  0  0  0  0  0  0  0
   75.2924    1.1368  103.6469 C   0  0  0  0  0  0  0  0  0  0  0  0
   74.7695    0.5259  104.6279 C   0  0  0  0  0  0  0  0  0  0  0  0
   73.0785   -1.1611  105.4148 C   0  0  0  0  0  0  0  0  0  0  0  0
   71.8005   -1.5368  105.1320 C   0  0  2  0  0  0  0  0  0  0  0  0
   71.2029   -2.2761  106.0956 O   0  0  0  0  0  0  0  0  0  0  0  0
   71.4684   -2.0777  103.8265 C   0  0  2  0  0  0  0  0  0  0  0  0
   72.2324   -1.4344  102.7037 C   0  0  0  0  0  0  0  0  0  0  0  0
   70.0633   -2.2057  103.4903 C   0  0  0  0  0  0  0  0  0  0  0  0
   69.5579   -3.3158  103.6218 O   0  0  0  0  0  0  0  0  0  0  0  0
   69.1733   -1.1663  103.6119 O   0  0  0  0  0  0  0  0  0  0  0  0
  1  2  2  0
  2  3  1  0
  4  3  1  6
  2  5  1  0
  4  6  1  0
  7  6  1  6
  7  8  1  0
  4  9  1  0
  8 10  1  1
  9 10  1  0
  8 11  1  0
 11 12  1  0
 12 13  1  1
 12 14  1  0
  7 15  1  0
 14 15  1  0
 14 16  1  6
 16 17  1  0
 16 18  2  0
M  END
$$$$
33
     RDKit          3D

 18 18  0  0  0  0  0  0  0  0999 V2000
   73.6169   -3.6097   98.8024 N   0  0  0  0  0  0  0  0  0  0  0  0
   72.6660   -3.5810   99.6055 C   0  0  0  0  0  0  0  0  0  0  0  0
   71.4370   -4.1342   99.1520 N   0  0  0  0  0  0  0  0  0  0  0  0
   72.7538   -3.3535  100.9865 N   0  0  0  0  0  0  0  0  0  0  0  0
   70.5953   -4.2309  100.2871 C   0  0  0  0  0  0  0  0  0  0  0  0
   71.3819   -3.6796  101.3391 C   0  0  0  0  0  0  0  0  0  0  0  0
   69.2351   -4.6106  100.3530 C   0  0  0  0  0  0  0  0  0  0  0  0
   71.0883   -3.4974  102.8327 O   0  0  0  0  0  0  0  0  0  0  0  0
   68.9025   -5.7341  100.1389 O   0  0  0  0  0  0  0  0  0  0  0  0
   68.3322   -3.8273  101.0874 N   0  0  0  0  0  0  0  0  0  0  0  0
   68.6083   -2.4311  101.3492 C   0  0  0  0  0  0  0  0  0  0  0  0
   68.3728   -1.6975  102.2198 C   0  0  0  0  0  0  0  0  0  0  0  0
   69.3167   -1.6809  100.3049 O   0  0  0  0  0  0  0  0  0  0  0  0
   68.2583   -2.3674  103.5581 O   0  0  0  0  0  0  0  0  0  0  0  0
   68.0524   -0.3598  102.3400 N   0  0  0  0  0  0  0  0  0  0  0  0
   67.3281    0.3150  101.3124 C   0  0  0  0  0  0  0  0  0  0  0  0
   67.4013    1.7217  101.2683 C   0  0  0  0  0  0  0  0  0  0  0  0
   66.8174   -0.3696  100.2525 C   0  0  0  0  0  0  0  0  0  0  0  0
  1  2  1  0
  2  3  1  0
  2  4  2  0
  3  5  2  0
  4  6  1  0
  5  6  1  0
  5  7  1  0
  6  8  2  0
  7  9  2  0
  7 10  1  0
 10 11  1  0
 11 12  1  0
 11 13  2  0
 12 14  2  0
 12 15  1  0
 15 16  1  0
 16 17  1  0
 16 18  2  0
M  END
$$$$
34
     RDKit          3D

 20 22  0  0  0  0  0  0  0  0999 V2000
   67.3332    1.1660  101.7163 C   0  0  0  0  0  0  0  0  0  0  0  0
   67.4945   -0.0906  101.9822 N   0  0  0  0  0  0  0  0  0  0  0  0
   67.3919    1.4571  100.3166 N   0  0  0  0  0  0  0  0  0  0  0  0
   67.9389   -0.9725  101.1417 C   0  0  2  0  0  0  0  0  0  0  0  0
   67.8283    0.3879   99.6188 C   0  0  1  0  0  0  0  0  0  0  0  0
   68.0264   -0.7551   99.8717 C   0  0  2  0  0  0  0  0  0  0  0  0
   67.5959    0.9195   98.0176 N   0  0  0  0  0  0  0  0  0  0  0  0
   68.2202   -2.3726  101.3868 N   0  0  0  0  0  0  0  0  0  0  0  0
   68.2208   -1.8430   98.9692 N   0  0  0  0  0  0  0  0  0  0  0  0
   68.4217   -3.0921  102.5455 C   0  0  1  0  0  0  0  0  0  0  0  0
   68.6364   -2.8324  100.0799 C   0  0  2  0  0  0  0  0  0  0  0  0
   68.9599   -3.9881  100.0829 O   0  0  0  0  0  0  0  0  0  0  0  0
   69.0649   -4.3238  102.2010 C   0  0  1  0  0  0  0  0  0  0  0  0
   69.3336   -4.7050  100.9111 C   0  0  1  0  0  0  0  0  0  0  0  0
   70.1275   -4.5208  102.9712 O   0  0  0  0  0  0  0  0  0  0  0  0
   70.1440   -4.8857  104.3092 C   0  0  0  0  0  0  0  0  0  0  0  0
   69.1221   -6.1694  100.6576 C   0  0  0  0  0  0  0  0  0  0  0  0
   70.1608   -6.8965  101.0456 O   0  0  0  0  0  0  0  0  0  0  0  0
   71.0479   -4.0961  105.0825 O   0  0  0  0  0  0  0  0  0  0  0  0
   68.8051   -2.4012  103.4070 O   0  0  0  0  0  0  0  0  0  0  0  0
  1  2  1  0
  1  3  1  0
  4  2  1  6
  3  5  1  0
  4  6  1  0
  5  6  1  0
  5  7  1  6
  4  8  1  0
  6  9  1  6
  8 10  1  0
  8 11  1  0
 11  9  1  6
 11 12  1  0
 10 13  1  0
 12 14  1  0
 13 14  1  0
 13 15  1  1
 15 16  1  0
 14 17  1  6
 17 18  1  0
 16 19  1  0
 10 20  1  1
M  END
$$$$
35
     RDKit          3D

 20 22  0  0  0  0  0  0  0  0999 V2000
   67.3332    1.1660  101.7163 C   0  0  0  0  0  0  0  0  0  0  0  0
   67.4945   -0.0906  101.9822 N   0  0  0  0  0  0  0  0  0  0  0  0
   67.3919    1.4571  100.3166 N   0  0  0  0  0  0  0  0  0  0  0  0
   67.9389   -0.9725  101.1417 C   0  0  2  0  0  0  0  0  0  0  0  0
   67.8283    0.3879   99.6188 C   0  0  1  0  0  0  0  0  0  0  0  0
   68.0264   -0.7551   99.8717 C   0  0  2  0  0  0  0  0  0  0  0  0
   67.5959    0.9195   98.0176 N   0  0  0  0  0  0  0  0  0  0  0  0
   68.2202   -2.3726  101.3868 N   0  0  0  0  0  0  0  0  0  0  0  0
   68.5406   -2.9435  102.6705 C   0  0  0  0  0  0  0  0  0  0  0  0
   68.1909   -1.8560   98.8882 N   0  0  0  0  0  0  0  0  0  0  0  0
   68.5016   -2.9056   99.7709 C   0  0  1  0  0  0  0  0  0  0  0  0
   68.9825   -3.9770   99.4931 N   0  0  0  0  0  0  0  0  0  0  0  0
   69.6097   -4.8656  100.4890 C   0  0  0  0  0  0  0  0  0  0  0  0
   69.2667   -4.0665  102.4991 O   0  0  0  0  0  0  0  0  0  0  0  0
   67.9811   -2.6403  103.6546 O   0  0  0  0  0  0  0  0  0  0  0  0
   69.0213   -4.4201   98.0451 C   0  0  0  0  0  0  0  0  0  0  0  0
   70.3052   -5.8740   99.7979 O   0  0  0  0  0  0  0  0  0  0  0  0
   69.8273   -4.9511  101.6884 C   0  0  2  0  0  0  0  0  0  0  0  0
   71.0867   -5.5543  101.9920 C   0  0  0  0  0  0  0  0  0  0  0  0
   71.3240   -5.7348  103.4499 O   0  0  0  0  0  0  0  0  0  0  0  0
  1  2  1  0
  1  3  1  0
  4  2  1  6
  3  5  1  0
  4  6  1  0
  5  6  1  0
  5  7  1  6
  4  8  1  0
  8  9  1  0
  6 10  1  6
  8 11  1  0
 11 10  1  1
 11 12  1  0
 12 13  1  0
  9 14  1  0
  9 15  2  0
 12 16  1  0
 13 17  2  0
 13 18  1  0
 14 18  1  0
 18 19  1  6
 19 20  1  0
M  END
$$$$
36
     RDKit          3D

 20 22  0  0  0  0  0  0  0  0999 V2000
   67.0159    1.1915  101.0323 C   0  0  0  0  0  0  0  0  0  0  0  0
   67.4236   -0.1103  101.3141 C   0  0  1  0  0  0  0  0  0  0  0  0
   67.4970   -1.0961  100.2541 C   0  0  1  0  0  0  0  0  0  0  0  0
   67.8142   -2.4477  100.5776 N   0  0  0  0  0  0  0  0  0  0  0  0
   68.1332   -0.5511  102.4556 C   0  0  0  0  0  0  0  0  0  0  0  0
   66.7792    1.5689   99.6970 N   0  0  0  0  0  0  0  0  0  0  0  0
   66.9500   -0.7292   98.9229 N   0  0  0  0  0  0  0  0  0  0  0  0
   68.4002   -2.6726  101.6527 C   0  0  1  0  0  0  0  0  0  0  0  0
   66.7058    0.5885   98.7394 C   0  0  0  0  0  0  0  0  0  0  0  0
   68.5017   -1.7796  102.6563 N   0  0  0  0  0  0  0  0  0  0  0  0
   66.2888    1.0494   97.3780 C   0  0  0  0  0  0  0  0  0  0  0  0
   68.8682   -4.1106  101.9054 N   0  0  0  0  0  0  0  0  0  0  0  0
   68.3990   -5.0337  101.3345 C   0  0  0  0  0  0  0  0  0  0  0  0
   67.1747    1.3852   96.5506 O   0  0  0  0  0  0  0  0  0  0  0  0
   70.1822   -4.0606  102.5265 C   0  0  1  0  0  0  0  0  0  0  0  0
   69.4558   -5.7552  100.7475 C   0  0  2  0  0  0  0  0  0  0  0  0
   70.6743   -5.4445  101.6300 C   0  0  1  0  0  0  0  0  0  0  0  0
   71.0566   -2.9931  102.3915 O   0  0  0  0  0  0  0  0  0  0  0  0
   69.6987   -5.3568   99.3245 O   0  0  0  0  0  0  0  0  0  0  0  0
   71.7741   -5.2282  101.2380 O   0  0  0  0  0  0  0  0  0  0  0  0
  2  1  1  6
  2  3  1  0
  3  4  1  1
  2  5  1  0
  1  6  1  0
  3  7  1  0
  4  8  1  0
  6  9  1  0
  7  9  1  0
  5 10  1  0
  8 10  1  0
  9 11  1  0
  8 12  1  1
 12 13  1  0
 11 14  1  0
 12 15  1  0
 13 16  1  0
 15 17  1  0
 16 17  1  0
 15 18  1  6
 16 19  1  6
 17 20  1  6
M  END
$$$$
37
     RDKit          3D

 20 23  0  0  0  0  0  0  0  0999 V2000
   67.3332    1.1660  101.7163 C   0  0  0  0  0  0  0  0  0  0  0  0
   67.4945   -0.0906  101.9822 N   0  0  0  0  0  0  0  0  0  0  0  0
   67.3919    1.4571  100.3166 N   0  0  0  0  0  0  0  0  0  0  0  0
   67.9389   -0.9725  101.1417 C   0  0  2  0  0  0  0  0  0  0  0  0
   67.8283    0.3879   99.6188 C   0  0  1  0  0  0  0  0  0  0  0  0
   68.0264   -0.7551   99.8717 C   0  0  2  0  0  0  0  0  0  0  0  0
   67.5959    0.9195   98.0176 N   0  0  0  0  0  0  0  0  0  0  0  0
   68.2202   -2.3726  101.3868 N   0  0  0  0  0  0  0  0  0  0  0  0
   68.2208   -1.8430   98.9692 N   0  0  0  0  0  0  0  0  0  0  0  0
   68.4217   -3.0921  102.5455 C   0  0  0  0  0  0  0  0  0  0  0  0
   68.6364   -2.8324  100.0799 C   0  0  2  0  0  0  0  0  0  0  0  0
   68.9599   -3.9881  100.0829 O   0  0  0  0  0  0  0  0  0  0  0  0
   69.0649   -4.3238  102.2010 C   0  0  1  0  0  0  0  0  0  0  0  0
   69.1520   -4.7238  101.0224 C   0  0  2  0  0  0  0  0  0  0  0  0
   70.4391   -5.6283  100.7711 C   0  0  2  0  0  0  0  0  0  0  0  0
   71.0014   -5.9602  101.7869 O   0  0  0  0  0  0  0  0  0  0  0  0
   70.2378   -4.4343  103.1264 O   0  0  0  0  0  0  0  0  0  0  0  0
   71.3909   -4.9545  102.7378 C   0  0  0  0  0  0  0  0  0  0  0  0
   71.2135   -4.8047   99.7463 C   0  0  0  0  0  0  0  0  0  0  0  0
   70.7204   -4.2566   98.6742 O   0  0  0  0  0  0  0  0  0  0  0  0
  1  2  1  0
  1  3  1  0
  4  2  1  6
  3  5  1  0
  4  6  1  0
  5  6  1  0
  5  7  1  6
  4  8  1  0
  6  9  1  6
  8 10  1  0
  8 11  1  0
 11  9  1  6
 11 12  1  0
 13 10  1  6
 14 12  1  6
 13 14  1  0
 14 15  1  0
 15 16  1  0
 13 17  1  0
 16 18  1  0
 17 18  1  0
 15 19  1  6
 19 20  1  0
M  END
$$$$
38
     RDKit          3D

 20 22  0  0  0  0  0  0  0  0999 V2000
   68.0512   -3.3983  104.9069 O   0  0  0  0  0  0  0  0  0  0  0  0
   69.1081   -3.5421  104.2979 C   0  0  0  0  0  0  0  0  0  0  0  0
   69.4104   -2.3823  103.3476 C   0  0  1  0  0  0  0  0  0  0  0  0
   70.0578   -4.3944  104.5014 N   0  0  0  0  0  0  0  0  0  0  0  0
   70.8269   -4.8201  103.4497 C   0  0  0  0  0  0  0  0  0  0  0  0
   68.2600   -1.6034  103.0369 N   0  0  0  0  0  0  0  0  0  0  0  0
   70.5799   -1.4929  103.6495 C   0  0  0  0  0  0  0  0  0  0  0  0
   70.9375   -4.0759  102.3258 O   0  0  0  0  0  0  0  0  0  0  0  0
   68.0833   -0.8316  101.9142 C   0  0  2  0  0  0  0  0  0  0  0  0
   69.7699   -3.2688  102.0419 C   0  0  1  0  0  0  0  0  0  0  0  0
   71.0226   -6.2118  103.2022 O   0  0  0  0  0  0  0  0  0  0  0  0
   68.5435   -3.8025  101.4071 C   0  0  0  0  0  0  0  0  0  0  0  0
   71.1593   -1.6430  104.9327 O   0  0  0  0  0  0  0  0  0  0  0  0
   67.6880    0.4125  101.8459 C   0  0  0  0  0  0  0  0  0  0  0  0
   68.3052   -2.8867  100.1827 C   0  0  0  0  0  0  0  0  0  0  0  0
   67.8403   -1.4486  100.5407 C   0  0  2  0  0  0  0  0  0  0  0  0
   67.5464   -0.4522   99.5357 C   0  0  1  0  0  0  0  0  0  0  0  0
   67.3711   -0.7688   98.1767 O   0  0  0  0  0  0  0  0  0  0  0  0
   66.7686    0.1584   97.3025 C   0  0  0  0  0  0  0  0  0  0  0  0
   67.3180    0.7623  100.1839 C   0  0  0  0  0  0  0  0  0  0  0  0
  1  2  2  0
  2  3  1  0
  2  4  1  0
  4  5  1  0
  3  6  1  0
  3  7  1  1
  5  8  1  0
  6  9  1  0
  3 10  1  0
  8 10  1  0
  5 11  2  0
 10 12  1  1
  7 13  1  0
  9 14  1  1
 12 15  1  0
  9 16  1  0
 16 15  1  6
 16 17  1  0
 17 18  1  1
 18 19  1  0
 14 20  1  0
 17 20  1  0
M  END
$$$$
39
     RDKit          3D

 21 23  0  0  0  0  0  0  0  0999 V2000
   68.0512   -3.3983  104.9069 O   0  0  0  0  0  0  0  0  0  0  0  0
   69.1081   -3.5421  104.2979 C   0  0  0  0  0  0  0  0  0  0  0  0
   69.4104   -2.3823  103.3476 C   0  0  1  0  0  0  0  0  0  0  0  0
   70.0578   -4.3944  104.5014 N   0  0  0  0  0  0  0  0  0  0  0  0
   70.8269   -4.8201  103.4497 C   0  0  0  0  0  0  0  0  0  0  0  0
   68.2600   -1.6034  103.0369 N   0  0  0  0  0  0  0  0  0  0  0  0
   70.5799   -1.4929  103.6495 C   0  0  0  0  0  0  0  0  0  0  0  0
   70.9375   -4.0759  102.3258 O   0  0  0  0  0  0  0  0  0  0  0  0
   68.0833   -0.8316  101.9142 C   0  0  2  0  0  0  0  0  0  0  0  0
   69.7699   -3.2688  102.0419 C   0  0  2  0  0  0  0  0  0  0  0  0
   69.9918   -2.3229  100.8238 O   0  0  0  0  0  0  0  0  0  0  0  0
   71.1962   -1.7271  104.9525 O   0  0  0  0  0  0  0  0  0  0  0  0
   67.2850    0.2098  101.7607 C   0  0  0  0  0  0  0  0  0  0  0  0
   67.2396    1.0504  100.6142 C   0  0  0  0  0  0  0  0  0  0  0  0
   68.7420   -1.2648  100.5220 C   0  0  1  0  0  0  0  0  0  0  0  0
   68.2842   -1.0507   99.3829 C   0  0  0  0  0  0  0  0  0  0  0  0
   70.8186   -6.2212  103.2406 O   0  0  0  0  0  0  0  0  0  0  0  0
   67.5322    0.2963   99.3608 C   0  0  2  0  0  0  0  0  0  0  0  0
   67.1426    0.8659   98.0045 C   0  0  0  0  0  0  0  0  0  0  0  0
   66.1910    1.6826   97.8891 N   0  0  0  0  0  0  0  0  0  0  0  0
   67.8839    0.5577   96.9908 O   0  0  0  0  0  0  0  0  0  0  0  0
  1  2  2  0
  2  3  1  0
  2  4  1  0
  4  5  1  0
  3  6  1  0
  3  7  1  1
  5  8  1  0
  6  9  1  0
  3 10  1  0
 10  8  1  1
 10 11  1  0
  7 12  1  0
  9 13  1  6
 13 14  1  0
  9 15  1  0
 11 15  1  0
 15 16  1  6
  5 17  2  0
 14 18  1  0
 16 18  1  0
 18 19  1  6
 19 20  2  0
 19 21  1  0
M  END
$$$$
4
     RDKit          3D

 10 11  0  0  0  0  0  0  0  0999 V2000
   67.8095    1.4824  101.0425 C   0  0  0  0  0  0  0  0  0  0  0  0
   67.5624    0.3622  101.6632 C   0  0  0  0  0  0  0  0  0  0  0  0
   67.5303    1.4118   99.7104 N   0  0  0  0  0  0  0  0  0  0  0  0
   67.2423    0.2149   99.1259 C   0  0  0  0  0  0  0  0  0  0  0  0
   66.9753    0.2252   97.6538 N   0  0  0  0  0  0  0  0  0  0  0  0
   66.5358   -0.9937   97.1894 C   0  0  0  0  0  0  0  0  0  0  0  0
   67.3126   -0.9385  101.0363 C   0  0  0  0  0  0  0  0  0  0  0  0
   66.5908   -2.0474   98.0515 N   0  0  0  0  0  0  0  0  0  0  0  0
   67.1377   -1.0461   99.5981 C   0  0  1  0  0  0  0  0  0  0  0  0
   65.9914   -1.4550   96.0148 N   0  0  0  0  0  0  0  0  0  0  0  0
  1  2  1  0
  1  3  1  0
  3  4  1  0
  4  5  1  0
  5  6  1  0
  2  7  1  0
  6  8  1  0
  4  9  1  0
  9  7  1  1
  8  9  1  0
  6 10  2  0
M  END
$$$$
40
     RDKit          3D

 21 23  0  0  0  0  0  0  0  0999 V2000
   68.0512   -3.3983  104.9069 O   0  0  0  0  0  0  0  0  0  0  0  0
   69.1081   -3.5421  104.2979 C   0  0  0  0  0  0  0  0  0  0  0  0
   69.4104   -2.3823  103.3476 C   0  0  1  0  0  0  0  0  0  0  0  0
   70.0578   -4.3944  104.5014 N   0  0  0  0  0  0  0  0  0  0  0  0
   70.8269   -4.8201  103.4497 C   0  0  0  0  0  0  0  0  0  0  0  0
   68.2600   -1.6034  103.0369 N   0  0  0  0  0  0  0  0  0  0  0  0
   70.5799   -1.4929  103.6495 C   0  0  0  0  0  0  0  0  0  0  0  0
   70.9375   -4.0759  102.3258 O   0  0  0  0  0  0  0  0  0  0  0  0
   68.0833   -0.8316  101.9142 C   0  0  2  0  0  0  0  0  0  0  0  0
   69.7699   -3.2688  102.0419 C   0  0  2  0  0  0  0  0  0  0  0  0
   69.9918   -2.3229  100.8238 O   0  0  0  0  0  0  0  0  0  0  0  0
   71.1962   -1.7271  104.9525 O   0  0  0  0  0  0  0  0  0  0  0  0
   67.2850    0.2098  101.7607 C   0  0  0  0  0  0  0  0  0  0  0  0
   67.2396    1.0504  100.6142 C   0  0  0  0  0  0  0  0  0  0  0  0
   68.7420   -1.2648  100.5220 C   0  0  1  0  0  0  0  0  0  0  0  0
   68.2842   -1.0507   99.3829 C   0  0  0  0  0  0  0  0  0  0  0  0
   70.8186   -6.2212  103.2406 O   0  0  0  0  0  0  0  0  0  0  0  0
   67.5923    0.2912   99.3366 C   0  0  1  0  0  0  0  0  0  0  0  0
   67.1945    0.8309   98.0135 C   0  0  0  0  0  0  0  0  0  0  0  0
   66.2903    1.7646   97.9024 N   0  0  0  0  0  0  0  0  0  0  0  0
   67.9865    0.5506   97.0675 O   0  0  0  0  0  0  0  0  0  0  0  0
  1  2  2  0
  2  3  1  0
  2  4  1  0
  4  5  1  0
  3  6  1  0
  3  7  1  1
  5  8  1  0
  6  9  1  0
  3 10  1  0
 10  8  1  1
 10 11  1  0
  7 12  1  0
  9 13  1  6
 13 14  1  0
  9 15  1  0
 11 15  1  0
 15 16  1  6
  5 17  2  0
 14 18  1  0
 16 18  1  0
 18 19  1  1
 19 20  1  0
 19 21  2  0
M  END
$$$$
41
     RDKit          3D

 21 24  0  0  0  0  0  0  0  0999 V2000
   67.2823    0.8169  101.6379 N   0  0  0  0  0  0  0  0  0  0  0  0
   67.4833   -0.3710  101.6731 C   0  0  2  0  0  0  0  0  0  0  0  0
   68.0448   -1.1172  102.6776 N   0  0  0  0  0  0  0  0  0  0  0  0
   67.8939   -0.7835  100.2472 N   0  0  0  0  0  0  0  0  0  0  0  0
   68.9061   -2.1096  102.4384 C   0  0  1  0  0  0  0  0  0  0  0  0
   67.1281    1.4678  100.3626 C   0  0  0  0  0  0  0  0  0  0  0  0
   69.3031   -2.8571  103.6473 C   0  0  2  0  0  0  0  0  0  0  0  0
   67.5195    0.3659   99.5121 C   0  0  2  0  0  0  0  0  0  0  0  0
   67.3930    0.2151   98.1051 N   0  0  0  0  0  0  0  0  0  0  0  0
   68.9910   -2.6234  101.0839 C   0  0  0  0  0  0  0  0  0  0  0  0
   67.4455   -1.1048   97.7617 C   0  0  0  0  0  0  0  0  0  0  0  0
   66.7127    1.2408   97.2451 C   0  0  0  0  0  0  0  0  0  0  0  0
   69.7072   -3.7796  100.9507 C   0  0  1  0  0  0  0  0  0  0  0  0
   67.9573   -2.0687   98.5705 N   0  0  0  0  0  0  0  0  0  0  0  0
   68.3088   -1.9114   99.9418 C   0  0  0  0  0  0  0  0  0  0  0  0
   70.1505   -4.2473   99.6446 O   0  0  0  0  0  0  0  0  0  0  0  0
   70.9403   -3.8300  101.8661 C   0  0  2  0  0  0  0  0  0  0  0  0
   70.4858   -3.6161  103.3316 C   0  0  2  0  0  0  0  0  0  0  0  0
   71.6735   -2.5684  101.5989 O   0  0  0  0  0  0  0  0  0  0  0  0
   68.1967   -3.8307  103.9932 O   0  0  0  0  0  0  0  0  0  0  0  0
   71.2152   -4.2282  104.3560 O   0  0  0  0  0  0  0  0  0  0  0  0
  2  1  1  1
  2  3  1  0
  2  4  1  0
  5  3  1  1
  1  6  1  0
  5  7  1  0
  4  8  1  0
  8  6  1  1
  8  9  1  0
  5 10  1  0
  9 11  1  0
  9 12  1  0
 10 13  1  0
 11 14  1  0
  4 15  1  0
 10 15  1  0
 14 15  1  0
 13 16  1  6
 13 17  1  0
  7 18  1  0
 17 18  1  0
 17 19  1  6
  7 20  1  6
 18 21  1  6
M  END
$$$$
42
     RDKit          3D

 21 23  0  0  0  0  0  0  0  0999 V2000
   68.0512   -3.3983  104.9069 O   0  0  0  0  0  0  0  0  0  0  0  0
   69.1081   -3.5421  104.2979 C   0  0  0  0  0  0  0  0  0  0  0  0
   69.4104   -2.3823  103.3476 C   0  0  1  0  0  0  0  0  0  0  0  0
   70.0578   -4.3944  104.5014 N   0  0  0  0  0  0  0  0  0  0  0  0
   70.8269   -4.8201  103.4497 C   0  0  0  0  0  0  0  0  0  0  0  0
   68.2600   -1.6034  103.0369 N   0  0  0  0  0  0  0  0  0  0  0  0
   70.5799   -1.4929  103.6495 C   0  0  0  0  0  0  0  0  0  0  0  0
   70.9375   -4.0759  102.3258 O   0  0  0  0  0  0  0  0  0  0  0  0
   68.0833   -0.8316  101.9142 C   0  0  2  0  0  0  0  0  0  0  0  0
   69.7699   -3.2688  102.0419 C   0  0  1  0  0  0  0  0  0  0  0  0
   71.0226   -6.2118  103.2022 O   0  0  0  0  0  0  0  0  0  0  0  0
   68.5435   -3.8025  101.4071 C   0  0  0  0  0  0  0  0  0  0  0  0
   71.1593   -1.6430  104.9327 O   0  0  0  0  0  0  0  0  0  0  0  0
   67.6880    0.4125  101.8459 C   0  0  0  0  0  0  0  0  0  0  0  0
   68.3052   -2.8867  100.1827 C   0  0  0  0  0  0  0  0  0  0  0  0
   67.8403   -1.4486  100.5407 C   0  0  2  0  0  0  0  0  0  0  0  0
   67.5464   -0.4522   99.5357 C   0  0  0  0  0  0  0  0  0  0  0  0
   67.3711   -0.7688   98.1767 O   0  0  0  0  0  0  0  0  0  0  0  0
   67.3910    0.8798   99.9364 C   0  0  0  0  0  0  0  0  0  0  0  0
   67.4219    1.3739  101.0668 C   0  0  0  0  0  0  0  0  0  0  0  0
   66.6814   -0.0119   97.2868 C   0  0  0  0  0  0  0  0  0  0  0  0
  1  2  2  0
  2  3  1  0
  2  4  1  0
  4  5  1  0
  3  6  1  0
  3  7  1  1
  5  8  1  0
  6  9  1  0
  3 10  1  0
  8 10  1  0
  5 11  2  0
 10 12  1  1
  7 13  1  0
  9 14  1  1
 12 15  1  0
  9 16  1  0
 16 15  1  6
 16 17  1  0
 17 18  1  0
 17 19  1  0
 14 20  1  0
 19 20  1  0
 18 21  1  0
M  END
$$$$
43
     RDKit          3D

 21 25  0  0  0  0  0  0  0  0999 V2000
   66.6748    1.1661   99.2301 N   0  0  0  0  0  0  0  0  0  0  0  0
   66.8761    0.1764   98.4967 C   0  0  1  0  0  0  0  0  0  0  0  0
   67.2771    1.1235  100.5773 C   0  0  0  0  0  0  0  0  0  0  0  0
   67.8731   -0.0951  100.9653 N   0  0  0  0  0  0  0  0  0  0  0  0
   67.4251   -1.0013   98.8799 C   0  0  1  0  0  0  0  0  0  0  0  0
   67.5348   -2.1276   98.0597 N   0  0  0  0  0  0  0  0  0  0  0  0
   68.1015   -3.1704   98.6731 C   0  0  0  0  0  0  0  0  0  0  0  0
   66.2833    0.4825   97.0565 N   0  0  0  0  0  0  0  0  0  0  0  0
   67.9727   -1.1304  100.0723 C   0  0  2  0  0  0  0  0  0  0  0  0
   68.4427   -2.5526   99.9747 N   0  0  0  0  0  0  0  0  0  0  0  0
   69.0866   -3.1074  101.1559 C   0  0  2  0  0  0  0  0  0  0  0  0
   70.3300   -3.4720  101.0532 O   0  0  0  0  0  0  0  0  0  0  0  0
   70.7924   -4.5968  101.0209 C   0  0  1  0  0  0  0  0  0  0  0  0
   68.4505   -4.3160  101.7516 O   0  0  0  0  0  0  0  0  0  0  0  0
   72.0227   -4.9638  101.4715 C   0  0  0  0  0  0  0  0  0  0  0  0
   69.3620   -5.2727  101.4925 C   0  0  2  0  0  0  0  0  0  0  0  0
   68.7459   -1.9151  102.2348 C   0  0  1  0  0  0  0  0  0  0  0  0
   71.7046   -5.9884  102.3139 O   0  0  0  0  0  0  0  0  0  0  0  0
   70.1781   -5.9661  102.5923 C   0  0  0  0  0  0  0  0  0  0  0  0
   69.1287   -2.2330  103.5583 O   0  0  0  0  0  0  0  0  0  0  0  0
   68.3350   -0.5970  101.9402 C   0  0  0  0  0  0  0  0  0  0  0  0
  1  2  1  0
  1  3  1  0
  3  4  1  0
  2  5  1  0
  5  6  1  6
  6  7  1  0
  2  8  1  1
  9  4  1  1
  5  9  1  0
  7 10  1  0
  9 10  1  0
 10 11  1  0
 11 12  1  6
 12 13  1  0
 11 14  1  0
 13 15  1  1
 13 16  1  0
 14 16  1  0
 11 17  1  0
 15 18  1  0
 16 19  1  1
 18 19  1  0
 17 20  1  1
  4 21  1  0
 17 21  1  0
M  END
$$$$
44
     RDKit          3D

 22 24  0  0  0  0  0  0  0  0999 V2000
   75.0136   -0.3320  105.0044 N   0  0  0  0  0  0  0  0  0  0  0  0
   75.2509    0.4453  104.0902 C   0  0  2  0  0  0  0  0  0  0  0  0
   73.6958   -0.7411  105.0505 C   0  0  0  0  0  0  0  0  0  0  0  0
   73.0676   -0.4633  104.0192 N   0  0  0  0  0  0  0  0  0  0  0  0
   74.3680    0.4274  103.1695 C   0  0  0  0  0  0  0  0  0  0  0  0
   74.1685    0.8716  101.9385 N   0  0  0  0  0  0  0  0  0  0  0  0
   75.2672    1.6739  101.6992 C   0  0  2  0  0  0  0  0  0  0  0  0
   76.2397    1.7811  102.6015 N   0  0  0  0  0  0  0  0  0  0  0  0
   76.2906    1.1765  103.7366 C   0  0  0  0  0  0  0  0  0  0  0  0
   71.7949   -0.7343  103.4739 C   0  0  1  0  0  0  0  0  0  0  0  0
   71.7468   -1.2709  102.2319 O   0  0  0  0  0  0  0  0  0  0  0  0
   70.7540   -2.3608  102.0885 C   0  0  0  0  0  0  0  0  0  0  0  0
   75.2110    2.4260  100.4478 N   0  0  0  0  0  0  0  0  0  0  0  0
   70.8362   -1.3361  104.3889 C   0  0  1  0  0  0  0  0  0  0  0  0
   70.1718   -2.3641  103.5499 C   0  0  1  0  0  0  0  0  0  0  0  0
   70.5008   -3.0947  101.0633 C   0  0  0  0  0  0  0  0  0  0  0  0
   69.6273   -4.1093  101.1979 O   0  0  0  0  0  0  0  0  0  0  0  0
   69.3733   -5.1193  100.2809 C   0  0  0  0  0  0  0  0  0  0  0  0
   71.4035   -2.1279  105.4293 O   0  0  0  0  0  0  0  0  0  0  0  0
   68.9533   -2.7255  104.2617 O   0  0  0  0  0  0  0  0  0  0  0  0
   69.6512   -4.5470   98.9599 C   0  0  0  0  0  0  0  0  0  0  0  0
   68.7725   -3.6746   98.5248 O   0  0  0  0  0  0  0  0  0  0  0  0
  1  2  1  0
  1  3  1  0
  3  4  1  0
  2  5  1  0
  4  5  1  0
  5  6  1  0
  6  7  1  0
  7  8  1  0
  2  9  1  6
  8  9  1  0
 10  4  1  1
 10 11  1  0
 11 12  1  0
  7 13  1  1
 10 14  1  0
 12 15  1  0
 14 15  1  0
 12 16  1  0
 16 17  1  0
 17 18  1  0
 14 19  1  1
 15 20  1  6
 18 21  1  0
 21 22  1  0
M  END
$$$$
45
     RDKit          3D

 22 24  0  0  0  0  0  0  0  0999 V2000
   68.0512   -3.3983  104.9069 O   0  0  0  0  0  0  0  0  0  0  0  0
   69.1081   -3.5421  104.2979 C   0  0  0  0  0  0  0  0  0  0  0  0
   69.4104   -2.3823  103.3476 C   0  0  1  0  0  0  0  0  0  0  0  0
   70.0578   -4.3944  104.5014 N   0  0  0  0  0  0  0  0  0  0  0  0
   70.8269   -4.8201  103.4497 C   0  0  0  0  0  0  0  0  0  0  0  0
   68.2600   -1.6034  103.0369 N   0  0  0  0  0  0  0  0  0  0  0  0
   70.5799   -1.4929  103.6495 C   0  0  0  0  0  0  0  0  0  0  0  0
   70.9375   -4.0759  102.3258 O   0  0  0  0  0  0  0  0  0  0  0  0
   68.0833   -0.8316  101.9142 C   0  0  2  0  0  0  0  0  0  0  0  0
   69.7699   -3.2688  102.0419 C   0  0  2  0  0  0  0  0  0  0  0  0
   69.9918   -2.3229  100.8238 O   0  0  0  0  0  0  0  0  0  0  0  0
   71.1962   -1.7271  104.9525 O   0  0  0  0  0  0  0  0  0  0  0  0
   67.2850    0.2098  101.7607 C   0  0  0  0  0  0  0  0  0  0  0  0
   67.2396    1.0504  100.6142 C   0  0  0  0  0  0  0  0  0  0  0  0
   67.7653    0.7151   99.4195 N   0  0  0  0  0  0  0  0  0  0  0  0
   68.6787   -1.2642  100.4812 C   0  0  2  0  0  0  0  0  0  0  0  0
   67.5629    1.3461   98.2345 C   0  0  0  0  0  0  0  0  0  0  0  0
   71.4283   -5.9135  103.4108 O   0  0  0  0  0  0  0  0  0  0  0  0
   66.5665    2.2438   98.0708 O   0  0  0  0  0  0  0  0  0  0  0  0
   68.4059   -0.7075   99.4115 C   0  0  0  0  0  0  0  0  0  0  0  0
   68.4583    1.2266   97.2781 O   0  0  0  0  0  0  0  0  0  0  0  0
   68.1834    1.9164   95.9999 C   0  0  0  0  0  0  0  0  0  0  0  0
  1  2  2  0
  2  3  1  0
  2  4  1  0
  4  5  1  0
  3  6  1  0
  3  7  1  1
  5  8  1  0
  6  9  1  0
  3 10  1  0
 10  8  1  1
 10 11  1  0
  7 12  1  0
  9 13  1  6
 13 14  1  0
 14 15  1  0
  9 16  1  0
 11 16  1  0
 15 17  1  0
  5 18  2  0
 17 19  2  0
 15 20  1  0
 16 20  1  1
 17 21  1  0
 21 22  1  0
M  END
$$$$
46
     RDKit          3D

 22 25  0  0  0  0  0  0  0  0999 V2000
   67.3332    1.1660  101.7163 C   0  0  0  0  0  0  0  0  0  0  0  0
   67.4945   -0.0906  101.9822 N   0  0  0  0  0  0  0  0  0  0  0  0
   67.3919    1.4571  100.3166 N   0  0  0  0  0  0  0  0  0  0  0  0
   67.9389   -0.9725  101.1417 C   0  0  0  0  0  0  0  0  0  0  0  0
   68.0379   -0.5147   99.7960 C   0  0  2  0  0  0  0  0  0  0  0  0
   67.7315    0.6635   99.4007 C   0  0  1  0  0  0  0  0  0  0  0  0
   68.3425   -2.2993  101.2906 N   0  0  0  0  0  0  0  0  0  0  0  0
   68.6124   -2.8529  102.6075 C   0  0  2  0  0  0  0  0  0  0  0  0
   68.3348   -3.1676  100.2556 C   0  0  0  0  0  0  0  0  0  0  0  0
   68.9917   -2.0922  103.6388 O   0  0  0  0  0  0  0  0  0  0  0  0
   69.4734   -2.7323  104.7723 C   0  0  0  0  0  0  0  0  0  0  0  0
   68.7816   -4.4255  100.2952 O   0  0  0  0  0  0  0  0  0  0  0  0
   69.9144   -3.9878  104.1807 C   0  0  2  0  0  0  0  0  0  0  0  0
   67.6898    1.0490   98.1121 N   0  0  0  0  0  0  0  0  0  0  0  0
   69.7964   -3.8436  102.6445 C   0  0  2  0  0  0  0  0  0  0  0  0
   68.1428   -1.5632   98.7324 C   0  0  1  0  0  0  0  0  0  0  0  0
   68.3854   -2.8095   98.9338 N   0  0  0  0  0  0  0  0  0  0  0  0
   67.5128   -1.0766   97.5008 N   0  0  0  0  0  0  0  0  0  0  0  0
   67.2959    0.1155   97.2117 C   0  0  0  0  0  0  0  0  0  0  0  0
   69.8032   -2.1403  105.8103 O   0  0  0  0  0  0  0  0  0  0  0  0
   68.9605   -4.9444  104.7617 C   0  0  0  0  0  0  0  0  0  0  0  0
   70.9726   -3.2357  101.9939 O   0  0  0  0  0  0  0  0  0  0  0  0
  1  2  1  0
  1  3  1  0
  2  4  1  0
  5  4  1  1
  6  3  1  6
  5  6  1  0
  4  7  1  0
  8  7  1  6
  7  9  1  0
  8 10  1  0
 10 11  1  0
  9 12  2  0
 11 13  1  0
  6 14  1  0
  8 15  1  0
 13 15  1  0
  5 16  1  0
  9 17  1  0
 16 17  1  1
 16 18  1  0
 14 19  1  0
 18 19  1  0
 11 20  2  0
 13 21  1  1
 15 22  1  1
M  END
$$$$
47
     RDKit          3D

 22 24  0  0  0  0  0  0  0  0999 V2000
   68.0512   -3.3983  104.9069 O   0  0  0  0  0  0  0  0  0  0  0  0
   69.1081   -3.5421  104.2979 C   0  0  0  0  0  0  0  0  0  0  0  0
   69.4104   -2.3823  103.3476 C   0  0  1  0  0  0  0  0  0  0  0  0
   70.0578   -4.3944  104.5014 N   0  0  0  0  0  0  0  0  0  0  0  0
   70.8269   -4.8201  103.4497 C   0  0  0  0  0  0  0  0  0  0  0  0
   68.2600   -1.6034  103.0369 N   0  0  0  0  0  0  0  0  0  0  0  0
   70.5799   -1.4929  103.6495 C   0  0  0  0  0  0  0  0  0  0  0  0
   70.9375   -4.0759  102.3258 O   0  0  0  0  0  0  0  0  0  0  0  0
   68.0833   -0.8316  101.9142 C   0  0  2  0  0  0  0  0  0  0  0  0
   69.7699   -3.2688  102.0419 C   0  0  2  0  0  0  0  0  0  0  0  0
   69.9918   -2.3229  100.8238 O   0  0  0  0  0  0  0  0  0  0  0  0
   71.1962   -1.7271  104.9525 O   0  0  0  0  0  0  0  0  0  0  0  0
   67.2850    0.2098  101.7607 C   0  0  0  0  0  0  0  0  0  0  0  0
   67.2396    1.0504  100.6142 C   0  0  0  0  0  0  0  0  0  0  0  0
   67.7653    0.7151   99.4195 N   0  0  0  0  0  0  0  0  0  0  0  0
   68.6787   -1.2642  100.4812 C   0  0  2  0  0  0  0  0  0  0  0  0
   67.5629    1.3461   98.2345 C   0  0  0  0  0  0  0  0  0  0  0  0
   71.4283   -5.9135  103.4108 O   0  0  0  0  0  0  0  0  0  0  0  0
   66.5665    2.2438   98.0708 O   0  0  0  0  0  0  0  0  0  0  0  0
   68.4059   -0.7075   99.4115 C   0  0  0  0  0  0  0  0  0  0  0  0
   68.4583    1.2266   97.2781 O   0  0  0  0  0  0  0  0  0  0  0  0
   67.8901    1.0326   95.9326 O   0  0  0  0  0  0  0  0  0  0  0  0
  1  2  2  0
  2  3  1  0
  2  4  1  0
  4  5  1  0
  3  6  1  0
  3  7  1  1
  5  8  1  0
  6  9  1  0
  3 10  1  0
 10  8  1  1
 10 11  1  0
  7 12  1  0
  9 13  1  6
 13 14  1  0
 14 15  1  0
  9 16  1  0
 11 16  1  0
 15 17  1  0
  5 18  2  0
 17 19  2  0
 15 20  1  0
 16 20  1  1
 17 21  1  0
 21 22  1  0
M  END
$$$$
48
     RDKit          3D

 22 24  0  0  0  0  0  0  0  0999 V2000
   75.9145    1.2355  104.5227 C   0  0  0  0  0  0  0  0  0  0  0  0
   75.2490    0.9036  103.3715 C   0  0  1  0  0  0  0  0  0  0  0  0
   75.5099    0.4447  105.6013 N   0  0  0  0  0  0  0  0  0  0  0  0
   74.5259   -0.3880  105.3410 C   0  0  0  0  0  0  0  0  0  0  0  0
   74.2206   -0.1091  103.7241 C   0  0  1  0  0  0  0  0  0  0  0  0
   75.1978    1.5186  102.0794 C   0  0  1  0  0  0  0  0  0  0  0  0
   73.2819   -0.3952  102.8612 C   0  0  2  0  0  0  0  0  0  0  0  0
   72.3154   -1.3669  103.1108 N   0  0  0  0  0  0  0  0  0  0  0  0
   76.0595    2.5009  101.7564 N   0  0  0  0  0  0  0  0  0  0  0  0
   75.6082    2.9319  100.4619 C   0  0  0  0  0  0  0  0  0  0  0  0
   74.2601    1.0310  101.1063 N   0  0  0  0  0  0  0  0  0  0  0  0
   73.4183    0.1509  101.5481 N   0  0  0  0  0  0  0  0  0  0  0  0
   76.1631    4.0720   99.9087 O   0  0  0  0  0  0  0  0  0  0  0  0
   74.4750    2.1348  100.0967 C   0  0  0  0  0  0  0  0  0  0  0  0
   71.4836   -1.8471  102.1719 C   0  0  0  0  0  0  0  0  0  0  0  0
   70.4410   -2.8023  102.8091 C   0  0  2  0  0  0  0  0  0  0  0  0
   69.8130   -2.0741  103.9388 O   0  0  0  0  0  0  0  0  0  0  0  0
   71.1030   -4.0307  103.4337 O   0  0  0  0  0  0  0  0  0  0  0  0
   68.9203   -2.7158  104.7957 C   0  0  0  0  0  0  0  0  0  0  0  0
   70.5194   -5.3380  103.1249 C   0  0  0  0  0  0  0  0  0  0  0  0
   71.2600   -5.9498  102.1705 C   0  0  0  0  0  0  0  0  0  0  0  0
   71.3354   -5.3711  100.8846 O   0  0  0  0  0  0  0  0  0  0  0  0
  2  1  1  1
  1  3  1  0
  3  4  1  0
  2  5  1  0
  5  4  1  1
  2  6  1  0
  5  7  1  0
  7  8  1  6
  6  9  1  6
  9 10  1  0
  6 11  1  0
  7 12  1  0
 11 12  1  0
 10 13  2  0
 10 14  1  0
 11 14  1  0
  8 15  1  0
 16 15  1  1
 16 17  1  0
 16 18  1  0
 17 19  1  0
 18 20  1  0
 20 21  1  0
 21 22  1  0
M  END
$$$$
49
     RDKit          3D

 22 25  0  0  0  0  0  0  0  0999 V2000
   67.2823    0.8169  101.6379 N   0  0  0  0  0  0  0  0  0  0  0  0
   67.4833   -0.3710  101.6731 C   0  0  2  0  0  0  0  0  0  0  0  0
   68.0448   -1.1172  102.6776 N   0  0  0  0  0  0  0  0  0  0  0  0
   67.8939   -0.7835  100.2472 N   0  0  0  0  0  0  0  0  0  0  0  0
   68.9061   -2.1096  102.4384 C   0  0  1  0  0  0  0  0  0  0  0  0
   67.1281    1.4678  100.3626 C   0  0  0  0  0  0  0  0  0  0  0  0
   69.3031   -2.8571  103.6473 C   0  0  1  0  0  0  0  0  0  0  0  0
   67.5195    0.3659   99.5121 C   0  0  2  0  0  0  0  0  0  0  0  0
   67.3930    0.2151   98.1051 N   0  0  0  0  0  0  0  0  0  0  0  0
   68.9910   -2.6234  101.0839 C   0  0  0  0  0  0  0  0  0  0  0  0
   67.4455   -1.1048   97.7617 C   0  0  0  0  0  0  0  0  0  0  0  0
   66.7127    1.2408   97.2451 C   0  0  0  0  0  0  0  0  0  0  0  0
   69.7072   -3.7796  100.9507 C   0  0  0  0  0  0  0  0  0  0  0  0
   67.9573   -2.0687   98.5705 N   0  0  0  0  0  0  0  0  0  0  0  0
   68.2293   -1.8233   99.9142 C   0  0  2  0  0  0  0  0  0  0  0  0
   70.1513   -3.8903  103.4041 C   0  0  2  0  0  0  0  0  0  0  0  0
   69.0467   -2.3153  104.9997 O   0  0  0  0  0  0  0  0  0  0  0  0
   70.1214   -4.6188  102.1155 C   0  0  1  0  0  0  0  0  0  0  0  0
   69.4591   -5.8424  102.1543 C   0  0  0  0  0  0  0  0  0  0  0  0
   70.8663   -4.4614  104.5832 C   0  0  0  0  0  0  0  0  0  0  0  0
   68.8082   -6.1501  103.1276 O   0  0  0  0  0  0  0  0  0  0  0  0
   69.6239   -6.8010  101.3004 O   0  0  0  0  0  0  0  0  0  0  0  0
  2  1  1  1
  2  3  1  0
  2  4  1  0
  5  3  1  1
  1  6  1  0
  5  7  1  0
  4  8  1  0
  8  6  1  1
  8  9  1  0
  5 10  1  0
  9 11  1  0
  9 12  1  0
 10 13  1  0
 11 14  1  0
  4 15  1  0
 10 15  1  0
 15 14  1  6
  7 16  1  0
  7 17  1  1
 13 18  1  0
 16 18  1  0
 18 19  1  1
 16 20  1  1
 19 21  1  0
 19 22  2  0
M  END
$$$$
5
     RDKit          3D

 10 10  0  0  0  0  0  0  0  0999 V2000
   75.0086    2.8900  101.2107 N   0  0  0  0  0  0  0  0  0  0  0  0
   74.7770    1.7400  101.6968 C   0  0  1  0  0  0  0  0  0  0  0  0
   75.5620    2.9664  100.0204 O   0  0  0  0  0  0  0  0  0  0  0  0
   75.0287    1.2752  102.9457 C   0  0  0  0  0  0  0  0  0  0  0  0
   73.5597    0.9885  101.1221 N   0  0  0  0  0  0  0  0  0  0  0  0
   73.3111   -0.1499  101.7472 C   0  0  0  0  0  0  0  0  0  0  0  0
   73.7964   -0.5398  102.9397 N   0  0  0  0  0  0  0  0  0  0  0  0
   73.2073   -1.6479  103.5717 N   0  0  0  0  0  0  0  0  0  0  0  0
   74.6580    0.2064  103.5789 C   0  0  0  0  0  0  0  0  0  0  0  0
   73.4235   -1.6349  104.9708 O   0  0  0  0  0  0  0  0  0  0  0  0
  2  1  1  1
  1  3  1  0
  2  4  1  0
  2  5  1  0
  5  6  1  0
  6  7  1  0
  7  8  1  0
  4  9  1  0
  7  9  1  0
  8 10  1  0
M  END
$$$$
50
     RDKit          3D

 23 26  0  0  0  0  0  0  0  0999 V2000
   67.2823    0.8169  101.6379 N   0  0  0  0  0  0  0  0  0  0  0  0
   67.4833   -0.3710  101.6731 C   0  0  2  0  0  0  0  0  0  0  0  0
   68.0448   -1.1172  102.6776 N   0  0  0  0  0  0  0  0  0  0  0  0
   67.8939   -0.7835  100.2472 N   0  0  0  0  0  0  0  0  0  0  0  0
   68.9061   -2.1096  102.4384 C   0  0  1  0  0  0  0  0  0  0  0  0
   67.1281    1.4678  100.3626 C   0  0  0  0  0  0  0  0  0  0  0  0
   69.3031   -2.8571  103.6473 C   0  0  2  0  0  0  0  0  0  0  0  0
   67.5195    0.3659   99.5121 C   0  0  2  0  0  0  0  0  0  0  0  0
   67.3930    0.2151   98.1051 N   0  0  0  0  0  0  0  0  0  0  0  0
   68.9910   -2.6234  101.0839 C   0  0  0  0  0  0  0  0  0  0  0  0
   67.4455   -1.1048   97.7617 C   0  0  0  0  0  0  0  0  0  0  0  0
   66.7127    1.2408   97.2451 C   0  0  0  0  0  0  0  0  0  0  0  0
   69.7072   -3.7796  100.9507 C   0  0  2  0  0  0  0  0  0  0  0  0
   67.9573   -2.0687   98.5705 N   0  0  0  0  0  0  0  0  0  0  0  0
   68.3088   -1.9114   99.9418 C   0  0  0  0  0  0  0  0  0  0  0  0
   67.1319   -1.4257   96.5099 O   0  0  0  0  0  0  0  0  0  0  0  0
   69.2869   -2.1609  104.8701 O   0  0  0  0  0  0  0  0  0  0  0  0
   70.2506   -4.4012  102.0250 C   0  0  0  0  0  0  0  0  0  0  0  0
   70.1230   -3.9537  103.4128 C   0  0  0  0  0  0  0  0  0  0  0  0
   70.0719   -4.3989   99.6395 C   0  0  2  0  0  0  0  0  0  0  0  0
   69.3528   -5.3968   99.1915 C   0  0  0  0  0  0  0  0  0  0  0  0
   71.5646   -4.4969   99.6904 O   0  0  0  0  0  0  0  0  0  0  0  0
   68.9824   -6.3678   99.9676 O   0  0  0  0  0  0  0  0  0  0  0  0
  2  1  1  1
  2  3  1  0
  2  4  1  0
  5  3  1  1
  1  6  1  0
  5  7  1  0
  4  8  1  0
  8  6  1  1
  8  9  1  0
  5 10  1  0
  9 11  1  0
  9 12  1  0
 13 10  1  6
 11 14  1  0
  4 15  1  0
 10 15  1  0
 14 15  1  0
 11 16  2  0
  7 17  1  1
 13 18  1  0
  7 19  1  0
 18 19  2  0
 13 20  1  0
 20 21  1  0
 20 22  1  1
 21 23  1  0
M  END
$$$$
51
     RDKit          3D

 23 24  0  0  0  0  0  0  0  0999 V2000
   75.0136   -0.3320  105.0044 N   0  0  0  0  0  0  0  0  0  0  0  0
   75.2509    0.4453  104.0902 C   0  0  2  0  0  0  0  0  0  0  0  0
   73.6958   -0.7411  105.0505 C   0  0  0  0  0  0  0  0  0  0  0  0
   73.0676   -0.4633  104.0192 N   0  0  0  0  0  0  0  0  0  0  0  0
   74.3680    0.4274  103.1695 C   0  0  0  0  0  0  0  0  0  0  0  0
   74.1685    0.8716  101.9385 N   0  0  0  0  0  0  0  0  0  0  0  0
   75.2672    1.6739  101.6992 C   0  0  2  0  0  0  0  0  0  0  0  0
   76.2397    1.7811  102.6015 N   0  0  0  0  0  0  0  0  0  0  0  0
   76.2906    1.1765  103.7366 C   0  0  0  0  0  0  0  0  0  0  0  0
   75.2882    2.4434  100.5153 N   0  0  0  0  0  0  0  0  0  0  0  0
   71.8209   -0.7578  103.4655 C   0  0  0  0  0  0  0  0  0  0  0  0
   71.8077   -2.2093  103.1867 O   0  0  0  0  0  0  0  0  0  0  0  0
   70.5014   -2.6177  102.6872 C   0  0  2  0  0  0  0  0  0  0  0  0
   70.4986   -3.7272  101.9171 C   0  0  0  0  0  0  0  0  0  0  0  0
   69.2602   -3.9597  101.3371 O   0  0  0  0  0  0  0  0  0  0  0  0
   69.4382   -1.7933  102.9743 C   0  0  0  0  0  0  0  0  0  0  0  0
   69.2148   -4.7622  100.1446 C   0  0  0  0  0  0  0  0  0  0  0  0
   71.4337   -4.6485  101.8201 O   0  0  0  0  0  0  0  0  0  0  0  0
   68.8743   -1.8347  104.2316 O   0  0  0  0  0  0  0  0  0  0  0  0
   69.0431   -3.9803   98.8846 C   0  0  0  0  0  0  0  0  0  0  0  0
   69.4651   -4.5185   97.7539 O   0  0  0  0  0  0  0  0  0  0  0  0
   69.2194   -0.6892  102.2356 O   0  0  0  0  0  0  0  0  0  0  0  0
   68.7489   -2.7550   99.0179 O   0  0  0  0  0  0  0  0  0  0  0  0
  1  2  1  0
  1  3  1  0
  3  4  1  0
  2  5  1  0
  4  5  1  0
  5  6  1  0
  6  7  1  0
  7  8  1  0
  2  9  1  6
  8  9  1  0
  7 10  1  1
  4 11  1  0
 11 12  1  0
 13 12  1  6
 13 14  1  0
 14 15  1  0
 13 16  1  0
 15 17  1  0
 14 18  2  0
 16 19  1  0
 17 20  1  0
 20 21  2  0
 16 22  2  0
 20 23  1  0
M  END
$$$$
52
     RDKit          3D

 23 25  0  0  0  0  0  0  0  0999 V2000
   75.3467    3.1685  100.1504 O   0  0  0  0  0  0  0  0  0  0  0  0
   74.7255    2.3321  100.8492 C   0  0  0  0  0  0  0  0  0  0  0  0
   73.6068    2.0873  100.7285 N   0  0  0  0  0  0  0  0  0  0  0  0
   75.4388    1.7527  102.0449 N   0  0  0  0  0  0  0  0  0  0  0  0
   74.8082    0.8345  102.9013 C   0  0  1  0  0  0  0  0  0  0  0  0
   75.2160    0.8273  104.0993 C   0  0  0  0  0  0  0  0  0  0  0  0
   73.4519    0.4337  102.6914 O   0  0  0  0  0  0  0  0  0  0  0  0
   73.3687   -0.4327  103.8477 C   0  0  2  0  0  0  0  0  0  0  0  0
   72.1954   -1.2252  104.0429 C   0  0  2  0  0  0  0  0  0  0  0  0
   74.3825   -0.2165  104.7413 C   0  0  0  0  0  0  0  0  0  0  0  0
   71.8840   -1.8459  105.1981 O   0  0  0  0  0  0  0  0  0  0  0  0
   71.5405   -1.9530  102.9586 O   0  0  0  0  0  0  0  0  0  0  0  0
   70.4852   -2.7030  102.9526 C   0  0  1  0  0  0  0  0  0  0  0  0
   70.6562   -2.6042  105.1860 C   0  0  0  0  0  0  0  0  0  0  0  0
   70.1564   -3.1375  101.5941 C   0  0  2  0  0  0  0  0  0  0  0  0
   70.6460   -3.2548  106.3468 O   0  0  0  0  0  0  0  0  0  0  0  0
   70.0113   -3.2043  104.1274 C   0  0  1  0  0  0  0  0  0  0  0  0
   68.9483   -4.0371  104.1934 C   0  0  0  0  0  0  0  0  0  0  0  0
   70.6363   -2.8175  100.3494 C   0  0  0  0  0  0  0  0  0  0  0  0
   68.4213   -4.4608  102.9017 C   0  0  0  0  0  0  0  0  0  0  0  0
   71.9664   -2.9728  100.2413 O   0  0  0  0  0  0  0  0  0  0  0  0
   68.9264   -4.0811  101.6757 C   0  0  0  0  0  0  0  0  0  0  0  0
   72.8218   -3.6078   99.1986 C   0  0  0  0  0  0  0  0  0  0  0  0
  1  2  2  0
  2  3  1  0
  2  4  1  0
  5  4  1  1
  5  6  1  0
  5  7  1  0
  7  8  1  0
  8  9  1  0
  6 10  1  0
  8 10  1  1
  9 11  1  1
  9 12  1  0
 13 12  1  1
 11 14  1  0
 13 15  1  0
 14 16  2  0
 13 17  1  0
 14 17  1  0
 17 18  1  1
 15 19  1  6
 18 20  1  0
 19 21  1  0
 15 22  1  0
 20 22  1  0
 21 23  1  0
M  END
$$$$
53
     RDKit          3D

 23 25  0  0  0  0  0  0  0  0999 V2000
   75.3467    3.1685  100.1504 O   0  0  0  0  0  0  0  0  0  0  0  0
   74.7255    2.3321  100.8492 C   0  0  0  0  0  0  0  0  0  0  0  0
   73.6068    2.0873  100.7285 N   0  0  0  0  0  0  0  0  0  0  0  0
   75.4388    1.7527  102.0449 N   0  0  0  0  0  0  0  0  0  0  0  0
   74.8082    0.8345  102.9013 C   0  0  1  0  0  0  0  0  0  0  0  0
   75.2160    0.8273  104.0993 C   0  0  0  0  0  0  0  0  0  0  0  0
   73.4519    0.4337  102.6914 O   0  0  0  0  0  0  0  0  0  0  0  0
   73.3687   -0.4327  103.8477 C   0  0  2  0  0  0  0  0  0  0  0  0
   72.1954   -1.2252  104.0429 C   0  0  2  0  0  0  0  0  0  0  0  0
   74.3825   -0.2165  104.7413 C   0  0  0  0  0  0  0  0  0  0  0  0
   71.8840   -1.8459  105.1981 O   0  0  0  0  0  0  0  0  0  0  0  0
   71.5405   -1.9530  102.9586 O   0  0  0  0  0  0  0  0  0  0  0  0
   70.4852   -2.7030  102.9526 C   0  0  1  0  0  0  0  0  0  0  0  0
   70.6562   -2.6042  105.1860 C   0  0  0  0  0  0  0  0  0  0  0  0
   70.1564   -3.1375  101.5941 C   0  0  0  0  0  0  0  0  0  0  0  0
   70.6460   -3.2548  106.3468 O   0  0  0  0  0  0  0  0  0  0  0  0
   70.0113   -3.2043  104.1274 C   0  0  1  0  0  0  0  0  0  0  0  0
   68.9483   -4.0371  104.1934 C   0  0  0  0  0  0  0  0  0  0  0  0
   70.6363   -2.8175  100.3494 C   0  0  0  0  0  0  0  0  0  0  0  0
   68.4213   -4.4608  102.9017 C   0  0  0  0  0  0  0  0  0  0  0  0
   71.9664   -2.9728  100.2413 O   0  0  0  0  0  0  0  0  0  0  0  0
   68.9932   -4.1211  101.7467 C   0  0  0  0  0  0  0  0  0  0  0  0
   69.8026   -2.3069   99.5249 O   0  0  0  0  0  0  0  0  0  0  0  0
  1  2  2  0
  2  3  1  0
  2  4  1  0
  5  4  1  1
  5  6  1  0
  5  7  1  0
  7  8  1  0
  8  9  1  0
  6 10  1  0
  8 10  1  1
  9 11  1  1
  9 12  1  0
 13 12  1  1
 11 14  1  0
 13 15  1  0
 14 16  2  0
 13 17  1  0
 14 17  1  0
 17 18  1  1
 15 19  1  0
 18 20  1  0
 19 21  1  0
 15 22  1  0
 20 22  1  0
 19 23  2  0
M  END
$$$$
54
     RDKit          3D

 23 26  0  0  0  0  0  0  0  0999 V2000
   67.2823    0.8169  101.6379 N   0  0  0  0  0  0  0  0  0  0  0  0
   67.4833   -0.3710  101.6731 C   0  0  2  0  0  0  0  0  0  0  0  0
   68.0448   -1.1172  102.6776 N   0  0  0  0  0  0  0  0  0  0  0  0
   67.8939   -0.7835  100.2472 N   0  0  0  0  0  0  0  0  0  0  0  0
   68.9061   -2.1096  102.4384 C   0  0  1  0  0  0  0  0  0  0  0  0
   67.1281    1.4678  100.3626 C   0  0  0  0  0  0  0  0  0  0  0  0
   69.3031   -2.8571  103.6473 C   0  0  2  0  0  0  0  0  0  0  0  0
   67.5195    0.3659   99.5121 C   0  0  2  0  0  0  0  0  0  0  0  0
   67.3930    0.2151   98.1051 N   0  0  0  0  0  0  0  0  0  0  0  0
   68.9910   -2.6234  101.0839 C   0  0  0  0  0  0  0  0  0  0  0  0
   67.4455   -1.1048   97.7617 C   0  0  0  0  0  0  0  0  0  0  0  0
   66.7127    1.2408   97.2451 C   0  0  0  0  0  0  0  0  0  0  0  0
   69.7072   -3.7796  100.9507 C   0  0  2  0  0  0  0  0  0  0  0  0
   67.9573   -2.0687   98.5705 N   0  0  0  0  0  0  0  0  0  0  0  0
   68.3088   -1.9114   99.9418 C   0  0  0  0  0  0  0  0  0  0  0  0
   67.1319   -1.4257   96.5099 O   0  0  0  0  0  0  0  0  0  0  0  0
   69.2869   -2.1609  104.8701 O   0  0  0  0  0  0  0  0  0  0  0  0
   70.2506   -4.4012  102.0250 C   0  0  2  0  0  0  0  0  0  0  0  0
   69.9898   -4.3587   99.5982 C   0  0  0  0  0  0  0  0  0  0  0  0
   71.1662   -4.0747   99.0578 O   0  0  0  0  0  0  0  0  0  0  0  0
   70.4873   -3.6903  103.3764 C   0  0  2  0  0  0  0  0  0  0  0  0
   70.7300   -4.5334  104.5390 O   0  0  0  0  0  0  0  0  0  0  0  0
   71.5617   -5.1546  101.7752 O   0  0  0  0  0  0  0  0  0  0  0  0
  2  1  1  1
  2  3  1  0
  2  4  1  0
  5  3  1  1
  1  6  1  0
  5  7  1  0
  4  8  1  0
  8  6  1  1
  8  9  1  0
  5 10  1  0
  9 11  1  0
  9 12  1  0
 10 13  1  0
 11 14  1  0
  4 15  1  0
 10 15  1  0
 14 15  1  0
 11 16  2  0
  7 17  1  1
 13 18  1  0
 13 19  1  6
 19 20  1  0
  7 21  1  0
 18 21  1  0
 21 22  1  1
 18 23  1  6
M  END
$$$$
55
     RDKit          3D

 23 25  0  0  0  0  0  0  0  0999 V2000
   75.7609    3.4006   99.4945 O   0  0  0  0  0  0  0  0  0  0  0  0
   75.1057    2.7142  100.4916 C   0  0  0  0  0  0  0  0  0  0  0  0
   75.7554    1.8943  101.3228 N   0  0  0  0  0  0  0  0  0  0  0  0
   75.0034    1.1674  102.2623 C   0  0  2  0  0  0  0  0  0  0  0  0
   73.7421    2.9148  100.6351 O   0  0  0  0  0  0  0  0  0  0  0  0
   75.6333    0.3463  103.1836 C   0  0  1  0  0  0  0  0  0  0  0  0
   73.6064    0.9442  102.1641 O   0  0  0  0  0  0  0  0  0  0  0  0
   73.2834   -0.1826  102.9575 C   0  0  2  0  0  0  0  0  0  0  0  0
   72.1694   -0.5663  103.2396 C   0  0  2  0  0  0  0  0  0  0  0  0
   72.0240   -1.5115  104.3760 C   0  0  0  0  0  0  0  0  0  0  0  0
   71.2712   -1.2773  102.3769 O   0  0  0  0  0  0  0  0  0  0  0  0
   76.7545    0.6835  103.8963 O   0  0  0  0  0  0  0  0  0  0  0  0
   70.9835   -2.3585  104.4549 C   0  0  1  0  0  0  0  0  0  0  0  0
   72.7735   -1.3250  105.6120 O   0  0  0  0  0  0  0  0  0  0  0  0
   74.5083   -0.5361  103.7277 O   0  0  0  0  0  0  0  0  0  0  0  0
   70.4531   -2.3077  103.0216 C   0  0  2  0  0  0  0  0  0  0  0  0
   71.2081   -3.8486  104.5569 O   0  0  0  0  0  0  0  0  0  0  0  0
   70.4571   -3.5868  102.4818 C   0  0  1  0  0  0  0  0  0  0  0  0
   70.5051   -4.5091  103.5847 C   0  0  0  0  0  0  0  0  0  0  0  0
   69.3651   -3.8654  101.4862 O   0  0  0  0  0  0  0  0  0  0  0  0
   69.5206   -4.7034  100.4020 C   0  0  0  0  0  0  0  0  0  0  0  0
   70.9761   -4.7427  100.1241 C   0  0  0  0  0  0  0  0  0  0  0  0
   71.6994   -3.8172   99.8367 O   0  0  0  0  0  0  0  0  0  0  0  0
  1  2  2  0
  2  3  1  0
  4  3  1  6
  2  5  1  0
  4  6  1  0
  4  7  1  0
  8  7  1  1
  8  9  1  0
  9 10  1  0
  9 11  1  6
  6 12  1  1
 10 13  1  0
 10 14  2  0
  6 15  1  0
  8 15  1  0
 16 11  1  6
 13 16  1  0
 13 17  1  6
 16 18  1  0
 17 19  1  0
 18 19  1  0
 18 20  1  1
 20 21  1  0
 21 22  1  0
 22 23  1  0
M  END
$$$$
56
     RDKit          3D

 23 25  0  0  0  0  0  0  0  0999 V2000
   68.0512   -3.3983  104.9069 O   0  0  0  0  0  0  0  0  0  0  0  0
   69.1081   -3.5421  104.2979 C   0  0  0  0  0  0  0  0  0  0  0  0
   69.4104   -2.3823  103.3476 C   0  0  1  0  0  0  0  0  0  0  0  0
   70.0578   -4.3944  104.5014 N   0  0  0  0  0  0  0  0  0  0  0  0
   70.8269   -4.8201  103.4497 C   0  0  0  0  0  0  0  0  0  0  0  0
   68.2600   -1.6034  103.0369 N   0  0  0  0  0  0  0  0  0  0  0  0
   70.5799   -1.4929  103.6495 C   0  0  0  0  0  0  0  0  0  0  0  0
   70.9375   -4.0759  102.3258 O   0  0  0  0  0  0  0  0  0  0  0  0
   68.0833   -0.8316  101.9142 C   0  0  2  0  0  0  0  0  0  0  0  0
   69.7699   -3.2688  102.0419 C   0  0  2  0  0  0  0  0  0  0  0  0
   69.9918   -2.3229  100.8238 O   0  0  0  0  0  0  0  0  0  0  0  0
   71.1962   -1.7271  104.9525 O   0  0  0  0  0  0  0  0  0  0  0  0
   67.2850    0.2098  101.7607 C   0  0  1  0  0  0  0  0  0  0  0  0
   68.7337   -1.2694  100.5622 C   0  0  1  0  0  0  0  0  0  0  0  0
   71.4377   -5.9305  103.4403 O   0  0  0  0  0  0  0  0  0  0  0  0
   68.1946   -1.0428   99.3944 C   0  0  2  0  0  0  0  0  0  0  0  0
   68.6339   -1.7028   98.2362 O   0  0  0  0  0  0  0  0  0  0  0  0
   67.4782    0.2186   99.2848 C   0  0  2  0  0  0  0  0  0  0  0  0
   66.9874    1.0499  102.7823 O   0  0  0  0  0  0  0  0  0  0  0  0
   67.0621    0.8809  100.4381 C   0  0  0  0  0  0  0  0  0  0  0  0
   66.9333    0.7445   97.8570 C   0  0  0  0  0  0  0  0  0  0  0  0
   65.8799    1.2542   97.6973 O   0  0  0  0  0  0  0  0  0  0  0  0
   67.7826    0.6488   96.8886 O   0  0  0  0  0  0  0  0  0  0  0  0
  1  2  2  0
  2  3  1  0
  2  4  1  0
  4  5  1  0
  3  6  1  0
  3  7  1  1
  5  8  1  0
  9  6  1  6
  3 10  1  0
 10  8  1  1
 10 11  1  0
  7 12  1  0
  9 13  1  0
  9 14  1  0
 14 11  1  1
  5 15  2  0
 14 16  1  0
 16 17  1  6
 16 18  1  0
 13 19  1  1
 13 20  1  0
 18 20  1  0
 18 21  1  6
 21 22  2  0
 21 23  1  0
M  END
$$$$
57
     RDKit          3D

 23 26  0  0  0  0  0  0  0  0999 V2000
   75.3139    3.1783   99.8970 O   0  0  0  0  0  0  0  0  0  0  0  0
   74.7641    2.3981  100.7566 C   0  0  0  0  0  0  0  0  0  0  0  0
   75.3969    2.1909  101.9377 N   0  0  0  0  0  0  0  0  0  0  0  0
   74.9249    1.0973  102.6768 C   0  0  2  0  0  0  0  0  0  0  0  0
   73.5050    1.9588  100.5243 C   0  0  1  0  0  0  0  0  0  0  0  0
   72.9732    2.2385   99.2735 C   0  0  0  0  0  0  0  0  0  0  0  0
   71.7816    1.5639   99.2754 C   0  0  0  0  0  0  0  0  0  0  0  0
   73.6718    0.5908  102.4205 C   0  0  2  0  0  0  0  0  0  0  0  0
   71.0800    1.2970  100.2836 C   0  0  1  0  0  0  0  0  0  0  0  0
   69.6479    1.0445  100.2398 C   0  0  0  0  0  0  0  0  0  0  0  0
   73.1371   -0.4017  103.3922 C   0  0  0  0  0  0  0  0  0  0  0  0
   73.8665   -0.4052  104.7237 C   0  0  1  0  0  0  0  0  0  0  0  0
   73.0804    0.8825  101.2081 C   0  0  1  0  0  0  0  0  0  0  0  0
   71.8336    0.4927  100.9995 N   0  0  0  0  0  0  0  0  0  0  0  0
   73.3789   -1.4138  105.5746 C   0  0  0  0  0  0  0  0  0  0  0  0
   74.0004   -1.5153  106.6624 O   0  0  0  0  0  0  0  0  0  0  0  0
   72.1829   -1.8845  105.6831 O   0  0  0  0  0  0  0  0  0  0  0  0
   75.1135    0.1000  104.7624 C   0  0  0  0  0  0  0  0  0  0  0  0
   75.5492    0.9090  103.9754 C   0  0  0  0  0  0  0  0  0  0  0  0
   68.7458    1.2468  101.1295 C   0  0  0  0  0  0  0  0  0  0  0  0
   69.0265    0.5836   99.4670 C   0  0  0  0  0  0  0  0  0  0  0  0
   67.7006    0.4884   99.5931 C   0  0  0  0  0  0  0  0  0  0  0  0
   67.6240    0.9226  100.9431 N   0  0  0  0  0  0  0  0  0  0  0  0
  1  2  2  0
  2  3  1  0
  3  4  1  0
  2  5  1  0
  5  6  1  6
  6  7  1  0
  4  8  1  0
  7  9  1  0
  9 10  1  6
  8 11  1  6
 11 12  1  0
  5 13  1  0
  8 13  1  0
  9 14  1  0
 13 14  1  1
 12 15  1  6
 15 16  1  0
 15 17  2  0
 12 18  1  0
  4 19  1  1
 18 19  1  0
 10 20  1  0
 10 21  1  0
 21 22  1  0
 20 23  1  0
 22 23  1  0
M  END
$$$$
58
     RDKit          3D

 23 25  0  0  0  0  0  0  0  0999 V2000
   75.4341    3.4210   99.6461 O   0  0  0  0  0  0  0  0  0  0  0  0
   75.0294    2.6338  100.6869 C   0  0  0  0  0  0  0  0  0  0  0  0
   75.7273    1.6225  101.1897 N   0  0  0  0  0  0  0  0  0  0  0  0
   75.2724    0.7860  102.1865 C   0  0  2  0  0  0  0  0  0  0  0  0
   73.6272    2.6155  101.0179 O   0  0  0  0  0  0  0  0  0  0  0  0
   74.2750   -0.1281  102.0511 C   0  0  0  0  0  0  0  0  0  0  0  0
   73.6733   -0.8107  103.0807 C   0  0  1  0  0  0  0  0  0  0  0  0
   73.9031   -0.3681  104.1593 C   0  0  2  0  0  0  0  0  0  0  0  0
   75.2924    1.1368  103.6469 C   0  0  0  0  0  0  0  0  0  0  0  0
   74.7695    0.5259  104.6279 C   0  0  0  0  0  0  0  0  0  0  0  0
   72.4786   -1.7170  102.7580 C   0  0  2  0  0  0  0  0  0  0  0  0
   73.0820   -1.0981  105.4134 N   0  0  0  0  0  0  0  0  0  0  0  0
   71.7443   -2.1653  103.8491 N   0  0  0  0  0  0  0  0  0  0  0  0
   72.1327   -2.1528  101.5067 O   0  0  0  0  0  0  0  0  0  0  0  0
   72.0265   -1.8089  105.1227 C   0  0  1  0  0  0  0  0  0  0  0  0
   71.0312   -2.8274  101.4343 C   0  0  0  0  0  0  0  0  0  0  0  0
   71.3130   -2.2209  106.1266 N   0  0  0  0  0  0  0  0  0  0  0  0
   70.5915   -2.9720  103.4185 C   0  0  0  0  0  0  0  0  0  0  0  0
   70.3049   -3.3717  102.3198 C   0  0  1  0  0  0  0  0  0  0  0  0
   68.8130   -3.5697  102.0720 C   0  0  0  0  0  0  0  0  0  0  0  0
   70.6939   -2.9326  100.0035 O   0  0  0  0  0  0  0  0  0  0  0  0
   68.3361   -4.7039  102.2932 O   0  0  0  0  0  0  0  0  0  0  0  0
   68.0759   -2.6095  101.9236 O   0  0  0  0  0  0  0  0  0  0  0  0
  1  2  2  0
  2  3  1  0
  4  3  1  6
  2  5  1  0
  4  6  1  0
  7  6  1  6
  7  8  1  0
  4  9  1  0
  8 10  1  1
  9 10  1  0
  7 11  1  0
  8 12  1  0
 11 13  1  0
 11 14  1  1
 12 15  1  0
 13 15  1  0
 14 16  1  0
 15 17  1  1
 13 18  1  0
 16 19  1  0
 18 19  1  0
 19 20  1  6
 16 21  2  0
 20 22  2  0
 20 23  1  0
M  END
$$$$
59
     RDKit          3D

 23 27  0  0  0  0  0  0  0  0999 V2000
   67.2823    0.8169  101.6379 N   0  0  0  0  0  0  0  0  0  0  0  0
   67.4833   -0.3710  101.6731 C   0  0  2  0  0  0  0  0  0  0  0  0
   68.0448   -1.1172  102.6776 N   0  0  0  0  0  0  0  0  0  0  0  0
   67.8939   -0.7835  100.2472 N   0  0  0  0  0  0  0  0  0  0  0  0
   68.9061   -2.1096  102.4384 C   0  0  1  0  0  0  0  0  0  0  0  0
   67.1281    1.4678  100.3626 C   0  0  0  0  0  0  0  0  0  0  0  0
   69.3031   -2.8571  103.6473 C   0  0  2  0  0  0  0  0  0  0  0  0
   67.5195    0.3659   99.5121 C   0  0  2  0  0  0  0  0  0  0  0  0
   67.3930    0.2151   98.1051 N   0  0  0  0  0  0  0  0  0  0  0  0
   68.9910   -2.6234  101.0839 C   0  0  0  0  0  0  0  0  0  0  0  0
   67.4455   -1.1048   97.7617 C   0  0  0  0  0  0  0  0  0  0  0  0
   66.7127    1.2408   97.2451 C   0  0  0  0  0  0  0  0  0  0  0  0
   69.7072   -3.7796  100.9507 C   0  0  2  0  0  0  0  0  0  0  0  0
   67.9573   -2.0687   98.5705 N   0  0  0  0  0  0  0  0  0  0  0  0
   68.3088   -1.9114   99.9418 C   0  0  0  0  0  0  0  0  0  0  0  0
   67.1319   -1.4257   96.5099 O   0  0  0  0  0  0  0  0  0  0  0  0
   69.2869   -2.1609  104.8701 O   0  0  0  0  0  0  0  0  0  0  0  0
   70.2506   -4.4012  102.0250 C   0  0  1  0  0  0  0  0  0  0  0  0
   69.9898   -4.3587   99.5982 C   0  0  0  0  0  0  0  0  0  0  0  0
   70.1009   -3.9327  103.3868 C   0  0  0  0  0  0  0  0  0  0  0  0
   70.9053   -5.7483  101.8990 C   0  0  0  0  0  0  0  0  0  0  0  0
   70.5992   -5.5442   99.6489 O   0  0  0  0  0  0  0  0  0  0  0  0
   70.9926   -6.2438  100.7255 C   0  0  0  0  0  0  0  0  0  0  0  0
  2  1  1  1
  2  3  1  0
  2  4  1  0
  5  3  1  1
  1  6  1  0
  5  7  1  0
  4  8  1  0
  8  6  1  1
  8  9  1  0
  5 10  1  0
  9 11  1  0
  9 12  1  0
 10 13  1  0
 11 14  1  0
  4 15  1  0
 10 15  1  0
 14 15  1  0
 11 16  2  0
  7 17  1  1
 13 18  1  0
 13 19  1  6
  7 20  1  0
 18 20  1  1
 18 21  1  0
 19 22  1  0
 21 23  1  0
 22 23  1  0
M  END
$$$$
6
     RDKit          3D

 10 11  0  0  0  0  0  0  0  0999 V2000
   75.9145    1.2355  104.5227 C   0  0  0  0  0  0  0  0  0  0  0  0
   75.2490    0.9036  103.3715 C   0  0  1  0  0  0  0  0  0  0  0  0
   75.7030    0.1897  105.3279 N   0  0  0  0  0  0  0  0  0  0  0  0
   74.6343   -0.5485  104.9007 N   0  0  0  0  0  0  0  0  0  0  0  0
   74.2973   -0.0633  103.6877 C   0  0  2  0  0  0  0  0  0  0  0  0
   73.2852   -0.4452  102.7697 N   0  0  0  0  0  0  0  0  0  0  0  0
   75.0018    1.6735  102.1446 C   0  0  1  0  0  0  0  0  0  0  0  0
   75.8175    2.7060  101.7976 N   0  0  0  0  0  0  0  0  0  0  0  0
   73.2859    0.1853  101.5937 C   0  0  0  0  0  0  0  0  0  0  0  0
   74.1927    1.2492  101.2889 N   0  0  0  0  0  0  0  0  0  0  0  0
  2  1  1  1
  1  3  1  0
  3  4  1  0
  2  5  1  0
  5  4  1  6
  5  6  1  0
  2  7  1  0
  7  8  1  6
  6  9  1  0
  7 10  1  0
  9 10  1  0
M  END
$$$$
60
     RDKit          3D

 24 27  0  0  0  0  0  0  0  0999 V2000
   67.2823    0.8169  101.6379 N   0  0  0  0  0  0  0  0  0  0  0  0
   67.4833   -0.3710  101.6731 C   0  0  2  0  0  0  0  0  0  0  0  0
   68.0448   -1.1172  102.6776 N   0  0  0  0  0  0  0  0  0  0  0  0
   67.8939   -0.7835  100.2472 N   0  0  0  0  0  0  0  0  0  0  0  0
   68.9061   -2.1096  102.4384 C   0  0  1  0  0  0  0  0  0  0  0  0
   67.1281    1.4678  100.3626 C   0  0  0  0  0  0  0  0  0  0  0  0
   69.3031   -2.8571  103.6473 C   0  0  1  0  0  0  0  0  0  0  0  0
   67.5195    0.3659   99.5121 C   0  0  2  0  0  0  0  0  0  0  0  0
   67.3930    0.2151   98.1051 N   0  0  0  0  0  0  0  0  0  0  0  0
   68.9910   -2.6234  101.0839 C   0  0  0  0  0  0  0  0  0  0  0  0
   67.4455   -1.1048   97.7617 C   0  0  0  0  0  0  0  0  0  0  0  0
   66.7127    1.2408   97.2451 C   0  0  0  0  0  0  0  0  0  0  0  0
   69.7072   -3.7796  100.9507 C   0  0  0  0  0  0  0  0  0  0  0  0
   67.9573   -2.0687   98.5705 N   0  0  0  0  0  0  0  0  0  0  0  0
   68.2293   -1.8233   99.9142 C   0  0  2  0  0  0  0  0  0  0  0  0
   70.1513   -3.8903  103.4041 C   0  0  2  0  0  0  0  0  0  0  0  0
   69.0467   -2.3153  104.9997 O   0  0  0  0  0  0  0  0  0  0  0  0
   66.9301   -1.1803   96.5788 O   0  0  0  0  0  0  0  0  0  0  0  0
   70.3441   -4.4286  102.1095 C   0  0  1  0  0  0  0  0  0  0  0  0
   70.7300   -4.5791  104.5993 C   0  0  0  0  0  0  0  0  0  0  0  0
   71.5631   -3.7623  105.3919 O   0  0  0  0  0  0  0  0  0  0  0  0
   70.9515   -5.6686  102.1011 C   0  0  0  0  0  0  0  0  0  0  0  0
   71.5114   -6.2081  103.1441 O   0  0  0  0  0  0  0  0  0  0  0  0
   70.9573   -6.2392  100.9067 O   0  0  0  0  0  0  0  0  0  0  0  0
  2  1  1  1
  2  3  1  0
  2  4  1  0
  5  3  1  1
  1  6  1  0
  5  7  1  0
  4  8  1  0
  8  6  1  1
  8  9  1  0
  5 10  1  0
  9 11  1  0
  9 12  1  0
 10 13  1  0
 11 14  1  0
  4 15  1  0
 10 15  1  0
 15 14  1  6
  7 16  1  0
  7 17  1  1
 11 18  2  0
 13 19  1  0
 16 19  1  0
 16 20  1  1
 20 21  1  0
 19 22  1  1
 22 23  1  0
 22 24  2  0
M  END
$$$$
61
     RDKit          3D

 24 25  0  0  0  0  0  0  0  0999 V2000
   75.7609    3.4006   99.4945 O   0  0  0  0  0  0  0  0  0  0  0  0
   75.1048    2.7712  100.5306 C   0  0  0  0  0  0  0  0  0  0  0  0
   73.8036    2.7487  100.4846 O   0  0  0  0  0  0  0  0  0  0  0  0
   75.8016    2.3034  101.6528 N   0  0  0  0  0  0  0  0  0  0  0  0
   75.2797    1.2376  102.4098 C   0  0  1  0  0  0  0  0  0  0  0  0
   75.4168    1.3810  103.8300 C   0  0  0  0  0  0  0  0  0  0  0  0
   74.0910    0.4639  102.0508 C   0  0  0  0  0  0  0  0  0  0  0  0
   73.5454   -0.4672  102.8723 C   0  0  2  0  0  0  0  0  0  0  0  0
   72.5070   -1.3086  102.4459 C   0  0  0  0  0  0  0  0  0  0  0  0
   72.1504   -1.4396  101.2300 O   0  0  0  0  0  0  0  0  0  0  0  0
   71.5911   -1.8259  103.4274 N   0  0  0  0  0  0  0  0  0  0  0  0
   73.9476   -0.4287  104.2781 C   0  0  2  0  0  0  0  0  0  0  0  0
   74.9315    0.4060  104.7188 C   0  0  0  0  0  0  0  0  0  0  0  0
   70.4312   -2.5048  102.9333 C   0  0  1  0  0  0  0  0  0  0  0  0
   73.4671   -1.3817  105.3051 O   0  0  0  0  0  0  0  0  0  0  0  0
   70.4936   -3.8560  103.4980 C   0  0  0  0  0  0  0  0  0  0  0  0
   69.3745   -2.0251  102.4138 C   0  0  2  0  0  0  0  0  0  0  0  0
   68.2889   -2.7772  102.0399 C   0  0  0  0  0  0  0  0  0  0  0  0
   69.3345   -0.4747  101.8515 C   0  0  0  0  0  0  0  0  0  0  0  0
   68.1535    0.0497  101.2837 C   0  0  0  0  0  0  0  0  0  0  0  0
   68.0571    1.4793  100.8012 C   0  0  0  0  0  0  0  0  0  0  0  0
   69.3020   -4.7430  103.1808 C   0  0  0  0  0  0  0  0  0  0  0  0
   67.0029   -0.6586  101.2306 O   0  0  0  0  0  0  0  0  0  0  0  0
   68.3353   -4.1398  102.4982 C   0  0  0  0  0  0  0  0  0  0  0  0
  1  2  1  0
  2  3  2  0
  2  4  1  0
  5  4  1  6
  5  6  1  0
  5  7  1  0
  7  8  1  0
  8  9  1  1
  9 10  2  0
  9 11  1  0
  8 12  1  0
  6 13  1  0
 12 13  1  0
 14 11  1  1
 12 15  1  6
 14 16  1  0
 14 17  1  0
 17 18  1  0
 17 19  1  6
 19 20  1  0
 20 21  1  0
 16 22  1  0
 20 23  2  0
 18 24  1  0
 22 24  1  0
M  END
$$$$
62
     RDKit          3D

 24 27  0  0  0  0  0  0  0  0999 V2000
   75.3139    3.1783   99.8970 O   0  0  0  0  0  0  0  0  0  0  0  0
   74.7641    2.3981  100.7566 C   0  0  0  0  0  0  0  0  0  0  0  0
   75.3969    2.1909  101.9377 N   0  0  0  0  0  0  0  0  0  0  0  0
   74.9249    1.0973  102.6768 C   0  0  0  0  0  0  0  0  0  0  0  0
   73.5050    1.9588  100.5243 C   0  0  1  0  0  0  0  0  0  0  0  0
   72.9732    2.2385   99.2735 C   0  0  0  0  0  0  0  0  0  0  0  0
   71.7816    1.5639   99.2754 C   0  0  0  0  0  0  0  0  0  0  0  0
   73.6718    0.5908  102.4205 C   0  0  0  0  0  0  0  0  0  0  0  0
   71.0800    1.2970  100.2836 C   0  0  1  0  0  0  0  0  0  0  0  0
   69.6479    1.0445  100.2398 C   0  0  0  0  0  0  0  0  0  0  0  0
   73.1371   -0.4017  103.3922 C   0  0  1  0  0  0  0  0  0  0  0  0
   73.8665   -0.4052  104.7237 C   0  0  0  0  0  0  0  0  0  0  0  0
   73.0401    1.0457  101.2912 C   0  0  1  0  0  0  0  0  0  0  0  0
   73.4510   -1.4228  105.5683 N   0  0  0  0  0  0  0  0  0  0  0  0
   72.2866   -2.0711  105.2681 C   0  0  1  0  0  0  0  0  0  0  0  0
   71.7675   -2.7948  106.1947 N   0  0  0  0  0  0  0  0  0  0  0  0
   71.6977   -1.7870  103.9644 C   0  0  0  0  0  0  0  0  0  0  0  0
   72.1285   -1.0329  103.1210 C   0  0  1  0  0  0  0  0  0  0  0  0
   71.8240    0.3873  101.2429 C   0  0  1  0  0  0  0  0  0  0  0  0
   68.8241    0.6116  100.4954 C   0  0  0  0  0  0  0  0  0  0  0  0
   71.3512   -0.7803  101.9374 C   0  0  0  0  0  0  0  0  0  0  0  0
   67.3059    0.5557  100.4957 C   0  0  0  0  0  0  0  0  0  0  0  0
   66.7160    1.5382  101.0903 O   0  0  0  0  0  0  0  0  0  0  0  0
   66.9796   -0.7407  100.9468 O   0  0  0  0  0  0  0  0  0  0  0  0
  1  2  2  0
  2  3  1  0
  3  4  1  0
  2  5  1  0
  5  6  1  6
  6  7  1  0
  4  8  1  0
  7  9  1  0
  9 10  1  6
  8 11  1  0
 11 12  1  1
  5 13  1  0
 13  8  1  1
 12 14  1  0
 14 15  1  0
 15 16  1  1
 15 17  1  0
 11 18  1  0
 18 17  1  1
  9 19  1  0
 13 19  1  0
 10 20  3  0
 18 21  1  0
 19 21  1  1
 20 22  1  0
 22 23  1  0
 22 24  2  0
M  END
$$$$
63
     RDKit          3D

 24 28  0  0  0  0  0  0  0  0999 V2000
   66.6748    1.1661   99.2301 N   0  0  0  0  0  0  0  0  0  0  0  0
   66.8761    0.1764   98.4967 C   0  0  1  0  0  0  0  0  0  0  0  0
   67.2771    1.1235  100.5773 C   0  0  0  0  0  0  0  0  0  0  0  0
   67.8731   -0.0951  100.9653 N   0  0  0  0  0  0  0  0  0  0  0  0
   67.4251   -1.0013   98.8799 C   0  0  1  0  0  0  0  0  0  0  0  0
   67.5348   -2.1276   98.0597 N   0  0  0  0  0  0  0  0  0  0  0  0
   68.1015   -3.1704   98.6731 C   0  0  0  0  0  0  0  0  0  0  0  0
   66.2833    0.4825   97.0565 N   0  0  0  0  0  0  0  0  0  0  0  0
   67.9727   -1.1304  100.0723 C   0  0  2  0  0  0  0  0  0  0  0  0
   68.4427   -2.5526   99.9747 N   0  0  0  0  0  0  0  0  0  0  0  0
   69.0866   -3.1074  101.1559 C   0  0  2  0  0  0  0  0  0  0  0  0
   70.3300   -3.4720  101.0532 O   0  0  0  0  0  0  0  0  0  0  0  0
   70.7924   -4.5968  101.0209 C   0  0  1  0  0  0  0  0  0  0  0  0
   68.4505   -4.3160  101.7516 O   0  0  0  0  0  0  0  0  0  0  0  0
   72.0227   -4.9638  101.4715 C   0  0  0  0  0  0  0  0  0  0  0  0
   69.3620   -5.2727  101.4925 C   0  0  2  0  0  0  0  0  0  0  0  0
   68.7459   -1.9151  102.2348 C   0  0  2  0  0  0  0  0  0  0  0  0
   71.7046   -5.9884  102.3139 O   0  0  0  0  0  0  0  0  0  0  0  0
   70.1781   -5.9661  102.5923 C   0  0  0  0  0  0  0  0  0  0  0  0
   68.5037   -0.6491  102.0852 C   0  0  0  0  0  0  0  0  0  0  0  0
   69.9038   -2.2218  103.2492 O   0  0  0  0  0  0  0  0  0  0  0  0
   69.6946   -1.9531  104.6138 C   0  0  0  0  0  0  0  0  0  0  0  0
   70.6128   -2.7307  105.3405 C   0  0  0  0  0  0  0  0  0  0  0  0
   71.9856   -2.2853  105.3323 O   0  0  0  0  0  0  0  0  0  0  0  0
  1  2  1  0
  1  3  1  0
  3  4  1  0
  2  5  1  0
  5  6  1  6
  6  7  1  0
  2  8  1  1
  9  4  1  1
  5  9  1  0
  7 10  1  0
  9 10  1  0
 10 11  1  0
 11 12  1  6
 12 13  1  0
 11 14  1  0
 13 15  1  1
 13 16  1  0
 14 16  1  0
 11 17  1  0
 15 18  1  0
 16 19  1  1
 18 19  1  0
  4 20  1  0
 17 20  1  0
 17 21  1  1
 21 22  1  0
 22 23  1  0
 23 24  1  0
M  END
$$$$
64
     RDKit          3D

 24 28  0  0  0  0  0  0  0  0999 V2000
   67.2823    0.8169  101.6379 N   0  0  0  0  0  0  0  0  0  0  0  0
   67.4833   -0.3710  101.6731 C   0  0  2  0  0  0  0  0  0  0  0  0
   68.0448   -1.1172  102.6776 N   0  0  0  0  0  0  0  0  0  0  0  0
   67.8939   -0.7835  100.2472 N   0  0  0  0  0  0  0  0  0  0  0  0
   68.9061   -2.1096  102.4384 C   0  0  1  0  0  0  0  0  0  0  0  0
   67.1281    1.4678  100.3626 C   0  0  0  0  0  0  0  0  0  0  0  0
   69.3031   -2.8571  103.6473 C   0  0  2  0  0  0  0  0  0  0  0  0
   67.5195    0.3659   99.5121 C   0  0  2  0  0  0  0  0  0  0  0  0
   67.3930    0.2151   98.1051 N   0  0  0  0  0  0  0  0  0  0  0  0
   68.9910   -2.6234  101.0839 C   0  0  0  0  0  0  0  0  0  0  0  0
   67.4455   -1.1048   97.7617 C   0  0  0  0  0  0  0  0  0  0  0  0
   66.7127    1.2408   97.2451 C   0  0  0  0  0  0  0  0  0  0  0  0
   69.7072   -3.7796  100.9507 C   0  0  2  0  0  0  0  0  0  0  0  0
   67.9573   -2.0687   98.5705 N   0  0  0  0  0  0  0  0  0  0  0  0
   68.3088   -1.9114   99.9418 C   0  0  0  0  0  0  0  0  0  0  0  0
   67.1319   -1.4257   96.5099 O   0  0  0  0  0  0  0  0  0  0  0  0
   69.2869   -2.1609  104.8701 O   0  0  0  0  0  0  0  0  0  0  0  0
   70.2506   -4.4012  102.0250 C   0  0  1  0  0  0  0  0  0  0  0  0
   69.9898   -4.3587   99.5982 C   0  0  0  0  0  0  0  0  0  0  0  0
   70.1009   -3.9327  103.3868 C   0  0  2  0  0  0  0  0  0  0  0  0
   70.9053   -5.7483  101.8990 C   0  0  0  0  0  0  0  0  0  0  0  0
   70.6354   -4.5698  104.5524 O   0  0  0  0  0  0  0  0  0  0  0  0
   70.6780   -5.5438   99.6512 O   0  0  0  0  0  0  0  0  0  0  0  0
   71.0654   -6.2132  100.7362 C   0  0  0  0  0  0  0  0  0  0  0  0
  2  1  1  1
  2  3  1  0
  2  4  1  0
  5  3  1  1
  1  6  1  0
  5  7  1  0
  4  8  1  0
  8  6  1  1
  8  9  1  0
  5 10  1  0
  9 11  1  0
  9 12  1  0
 10 13  1  0
 11 14  1  0
  4 15  1  0
 10 15  1  0
 14 15  1  0
 11 16  2  0
  7 17  1  1
 13 18  1  0
 13 19  1  6
  7 20  1  0
 18 20  1  0
 18 21  1  1
 20 22  1  1
 19 23  1  0
 21 24  1  0
 23 24  1  0
M  END
$$$$
65
     RDKit          3D

 24 27  0  0  0  0  0  0  0  0999 V2000
   67.2823    0.8169  101.6379 N   0  0  0  0  0  0  0  0  0  0  0  0
   67.4833   -0.3710  101.6731 C   0  0  2  0  0  0  0  0  0  0  0  0
   68.0448   -1.1172  102.6776 N   0  0  0  0  0  0  0  0  0  0  0  0
   67.8939   -0.7835  100.2472 N   0  0  0  0  0  0  0  0  0  0  0  0
   68.9061   -2.1096  102.4384 C   0  0  1  0  0  0  0  0  0  0  0  0
   67.1281    1.4678  100.3626 C   0  0  0  0  0  0  0  0  0  0  0  0
   69.3031   -2.8571  103.6473 C   0  0  2  0  0  0  0  0  0  0  0  0
   67.5195    0.3659   99.5121 C   0  0  2  0  0  0  0  0  0  0  0  0
   67.3930    0.2151   98.1051 N   0  0  0  0  0  0  0  0  0  0  0  0
   68.9910   -2.6234  101.0839 C   0  0  0  0  0  0  0  0  0  0  0  0
   67.4455   -1.1048   97.7617 C   0  0  0  0  0  0  0  0  0  0  0  0
   66.7127    1.2408   97.2451 C   0  0  0  0  0  0  0  0  0  0  0  0
   69.7072   -3.7796  100.9507 C   0  0  2  0  0  0  0  0  0  0  0  0
   67.9573   -2.0687   98.5705 N   0  0  0  0  0  0  0  0  0  0  0  0
   68.3088   -1.9114   99.9418 C   0  0  0  0  0  0  0  0  0  0  0  0
   67.1319   -1.4257   96.5099 O   0  0  0  0  0  0  0  0  0  0  0  0
   69.2869   -2.1609  104.8701 O   0  0  0  0  0  0  0  0  0  0  0  0
   70.2506   -4.4012  102.0250 C   0  0  0  0  0  0  0  0  0  0  0  0
   70.1230   -3.9537  103.4128 C   0  0  0  0  0  0  0  0  0  0  0  0
   70.0719   -4.3989   99.6395 C   0  0  2  0  0  0  0  0  0  0  0  0
   69.3528   -5.3968   99.1915 C   0  0  0  0  0  0  0  0  0  0  0  0
   68.9257   -6.3815   99.9234 O   0  0  0  0  0  0  0  0  0  0  0  0
   71.5204   -4.2286   99.5965 C   0  0  0  0  0  0  0  0  0  0  0  0
   69.0756   -5.5449   97.8624 N   0  0  0  0  0  0  0  0  0  0  0  0
  2  1  1  1
  2  3  1  0
  2  4  1  0
  5  3  1  1
  1  6  1  0
  5  7  1  0
  4  8  1  0
  8  6  1  1
  8  9  1  0
  5 10  1  0
  9 11  1  0
  9 12  1  0
 13 10  1  6
 11 14  1  0
  4 15  1  0
 10 15  1  0
 14 15  1  0
 11 16  2  0
  7 17  1  1
 13 18  1  0
  7 19  1  0
 18 19  2  0
 13 20  1  0
 20 21  1  0
 21 22  2  0
 20 23  1  1
 21 24  1  0
M  END
$$$$
66
     RDKit          3D

 24 25  0  0  0  0  0  0  0  0999 V2000
   74.5860   -1.2261  105.4439 O   0  0  0  0  0  0  0  0  0  0  0  0
   74.7300   -0.0631  104.7522 C   0  0  0  0  0  0  0  0  0  0  0  0
   75.6359    0.7654  104.9638 N   0  0  0  0  0  0  0  0  0  0  0  0
   74.0981   -0.1288  103.3927 C   0  0  2  0  0  0  0  0  0  0  0  0
   74.4728    0.9237  102.5115 C   0  0  1  0  0  0  0  0  0  0  0  0
   73.0095   -0.9625  103.1033 N   0  0  0  0  0  0  0  0  0  0  0  0
   75.4568    1.8602  102.8625 N   0  0  0  0  0  0  0  0  0  0  0  0
   73.9900    1.0739  101.1034 N   0  0  0  0  0  0  0  0  0  0  0  0
   76.0599    1.6014  104.0965 C   0  0  0  0  0  0  0  0  0  0  0  0
   72.0960   -1.3138  104.0251 C   0  0  0  0  0  0  0  0  0  0  0  0
   71.0583   -2.1592  103.7245 C   0  0  0  0  0  0  0  0  0  0  0  0
   74.4490    2.2185  100.6066 C   0  0  0  0  0  0  0  0  0  0  0  0
   69.9873   -1.6765  102.9114 C   0  0  2  0  0  0  0  0  0  0  0  0
   68.4856   -1.8140  103.4867 C   0  0  0  0  0  0  0  0  0  0  0  0
   75.4956    2.7934  101.5084 N   0  0  0  0  0  0  0  0  0  0  0  0
   69.9208   -2.3808  101.5181 C   0  0  0  0  0  0  0  0  0  0  0  0
   74.3940    3.0709   99.5592 O   0  0  0  0  0  0  0  0  0  0  0  0
   69.5821   -3.6305  101.5912 O   0  0  0  0  0  0  0  0  0  0  0  0
   67.7340   -1.2247  102.9437 O   0  0  0  0  0  0  0  0  0  0  0  0
   68.4206   -2.5699  104.4800 O   0  0  0  0  0  0  0  0  0  0  0  0
   71.8895   -0.8793  105.2110 O   0  0  0  0  0  0  0  0  0  0  0  0
   69.5215   -4.5263  100.5722 C   0  0  0  0  0  0  0  0  0  0  0  0
   69.6674   -5.7692  100.7687 O   0  0  0  0  0  0  0  0  0  0  0  0
   69.6247   -3.9501   99.2102 O   0  0  0  0  0  0  0  0  0  0  0  0
  1  2  2  0
  2  3  1  0
  2  4  1  0
  4  5  1  0
  4  6  1  1
  5  7  1  0
  5  8  1  6
  3  9  1  0
  7  9  1  0
  6 10  1  0
 10 11  1  0
  8 12  1  0
 13 11  1  1
 13 14  1  0
  7 15  1  0
 12 15  1  0
 13 16  1  0
 12 17  2  0
 16 18  1  0
 14 19  2  0
 14 20  1  0
 10 21  2  0
 18 22  1  0
 22 23  1  0
 22 24  2  0
M  END
$$$$
67
     RDKit          3D

 25 28  0  0  0  0  0  0  0  0999 V2000
   75.0136   -0.3320  105.0044 N   0  0  0  0  0  0  0  0  0  0  0  0
   75.2509    0.4453  104.0902 C   0  0  2  0  0  0  0  0  0  0  0  0
   73.6958   -0.7411  105.0505 C   0  0  0  0  0  0  0  0  0  0  0  0
   73.0676   -0.4633  104.0192 N   0  0  0  0  0  0  0  0  0  0  0  0
   74.3680    0.4274  103.1695 C   0  0  0  0  0  0  0  0  0  0  0  0
   74.1685    0.8716  101.9385 N   0  0  0  0  0  0  0  0  0  0  0  0
   75.2672    1.6739  101.6992 C   0  0  2  0  0  0  0  0  0  0  0  0
   76.2397    1.7811  102.6015 N   0  0  0  0  0  0  0  0  0  0  0  0
   76.2906    1.1765  103.7366 C   0  0  0  0  0  0  0  0  0  0  0  0
   71.7949   -0.7343  103.4739 C   0  0  1  0  0  0  0  0  0  0  0  0
   71.7468   -1.2709  102.2319 O   0  0  0  0  0  0  0  0  0  0  0  0
   70.7540   -2.3608  102.0885 C   0  0  0  0  0  0  0  0  0  0  0  0
   75.2110    2.4260  100.4478 N   0  0  0  0  0  0  0  0  0  0  0  0
   70.8362   -1.3361  104.3889 C   0  0  1  0  0  0  0  0  0  0  0  0
   70.1718   -2.3641  103.5499 C   0  0  1  0  0  0  0  0  0  0  0  0
   70.5008   -3.0947  101.0633 C   0  0  2  0  0  0  0  0  0  0  0  0
   69.6273   -4.1093  101.1979 O   0  0  0  0  0  0  0  0  0  0  0  0
   69.3733   -5.1193  100.2809 C   0  0  2  0  0  0  0  0  0  0  0  0
   71.4035   -2.1279  105.4293 O   0  0  0  0  0  0  0  0  0  0  0  0
   68.9533   -2.7255  104.2617 O   0  0  0  0  0  0  0  0  0  0  0  0
   69.7055   -6.2305  100.6513 O   0  0  0  0  0  0  0  0  0  0  0  0
   70.1319   -4.5283   99.0292 C   0  0  2  0  0  0  0  0  0  0  0  0
   70.9378   -3.4648   99.6974 C   0  0  2  0  0  0  0  0  0  0  0  0
   69.0747   -4.0200   98.1974 O   0  0  0  0  0  0  0  0  0  0  0  0
   72.2631   -4.1207   99.7076 O   0  0  0  0  0  0  0  0  0  0  0  0
  1  2  1  0
  1  3  1  0
  3  4  1  0
  2  5  1  0
  4  5  1  0
  5  6  1  0
  6  7  1  0
  7  8  1  0
  2  9  1  6
  8  9  1  0
 10  4  1  1
 10 11  1  0
 11 12  1  0
  7 13  1  1
 10 14  1  0
 12 15  1  0
 14 15  1  0
 16 12  1  1
 16 17  1  0
 17 18  1  0
 14 19  1  1
 15 20  1  6
 18 21  1  1
 18 22  1  0
 16 23  1  0
 22 23  1  0
 22 24  1  6
 23 25  1  1
M  END
$$$$
68
     RDKit          3D

 25 27  0  0  0  0  0  0  0  0999 V2000
   68.0512   -3.3983  104.9069 O   0  0  0  0  0  0  0  0  0  0  0  0
   69.1081   -3.5421  104.2979 C   0  0  0  0  0  0  0  0  0  0  0  0
   69.4104   -2.3823  103.3476 C   0  0  1  0  0  0  0  0  0  0  0  0
   70.0578   -4.3944  104.5014 N   0  0  0  0  0  0  0  0  0  0  0  0
   70.8269   -4.8201  103.4497 C   0  0  0  0  0  0  0  0  0  0  0  0
   68.2600   -1.6034  103.0369 N   0  0  0  0  0  0  0  0  0  0  0  0
   70.5799   -1.4929  103.6495 C   0  0  0  0  0  0  0  0  0  0  0  0
   70.9375   -4.0759  102.3258 O   0  0  0  0  0  0  0  0  0  0  0  0
   68.0833   -0.8316  101.9142 C   0  0  2  0  0  0  0  0  0  0  0  0
   69.7699   -3.2688  102.0419 C   0  0  1  0  0  0  0  0  0  0  0  0
   71.0226   -6.2118  103.2022 O   0  0  0  0  0  0  0  0  0  0  0  0
   68.5435   -3.8025  101.4071 C   0  0  0  0  0  0  0  0  0  0  0  0
   71.1593   -1.6430  104.9327 O   0  0  0  0  0  0  0  0  0  0  0  0
   67.6880    0.4125  101.8459 C   0  0  0  0  0  0  0  0  0  0  0  0
   68.3052   -2.8867  100.1827 C   0  0  0  0  0  0  0  0  0  0  0  0
   67.8403   -1.4486  100.5407 C   0  0  2  0  0  0  0  0  0  0  0  0
   67.5464   -0.4522   99.5357 C   0  0  0  0  0  0  0  0  0  0  0  0
   67.3711   -0.7688   98.1767 O   0  0  0  0  0  0  0  0  0  0  0  0
   66.7686    0.1584   97.3025 C   0  0  0  0  0  0  0  0  0  0  0  0
   67.4408    0.9148  100.0075 C   0  0  0  0  0  0  0  0  0  0  0  0
   67.4189    1.1637   96.8595 C   0  0  0  0  0  0  0  0  0  0  0  0
   65.3333    0.2191   97.6002 C   0  0  0  0  0  0  0  0  0  0  0  0
   66.7235    2.2789   96.3235 O   0  0  0  0  0  0  0  0  0  0  0  0
   68.4985    0.9897   96.0298 O   0  0  0  0  0  0  0  0  0  0  0  0
   71.1250   -0.6646  103.0319 O   0  0  0  0  0  0  0  0  0  0  0  0
  1  2  2  0
  2  3  1  0
  2  4  1  0
  4  5  1  0
  3  6  1  0
  3  7  1  1
  5  8  1  0
  6  9  1  0
  3 10  1  0
  8 10  1  0
  5 11  2  0
 10 12  1  1
  7 13  1  0
  9 14  1  1
 12 15  1  0
  9 16  1  0
 16 15  1  6
 16 17  1  0
 17 18  1  0
 18 19  1  0
 14 20  1  0
 17 20  1  0
 19 21  1  0
 19 22  2  0
 21 23  1  0
 21 24  2  0
  7 25  2  0
M  END
$$$$
69
     RDKit          3D

 25 28  0  0  0  0  0  0  0  0999 V2000
   74.7873    2.9106  100.1427 C   0  0  0  0  0  0  0  0  0  0  0  0
   75.5325    2.7443  101.0909 N   0  0  0  0  0  0  0  0  0  0  0  0
   75.0122    3.5195   99.1627 O   0  0  0  0  0  0  0  0  0  0  0  0
   75.1825    1.8494  102.2075 C   0  0  2  0  0  0  0  0  0  0  0  0
   75.9442    1.4789  103.2617 N   0  0  0  0  0  0  0  0  0  0  0  0
   73.9467    1.0700  102.1098 N   0  0  0  0  0  0  0  0  0  0  0  0
   73.7324    0.2467  103.1964 C   0  0  0  0  0  0  0  0  0  0  0  0
   72.6390   -0.5058  103.3300 N   0  0  0  0  0  0  0  0  0  0  0  0
   75.3818    0.5583  104.1268 C   0  0  0  0  0  0  0  0  0  0  0  0
   74.4669   -0.0010  104.1998 C   0  0  0  0  0  0  0  0  0  0  0  0
   73.6687   -0.9161  104.8785 N   0  0  0  0  0  0  0  0  0  0  0  0
   72.6041   -1.1342  104.4267 C   0  0  0  0  0  0  0  0  0  0  0  0
   73.3552    2.4028  100.3035 C   0  0  0  0  0  0  0  0  0  0  0  0
   71.5641   -1.9582  104.9748 C   0  0  2  0  0  0  0  0  0  0  0  0
   70.5674   -2.3514  104.0539 C   0  0  2  0  0  0  0  0  0  0  0  0
   69.4771   -2.9820  104.5673 O   0  0  0  0  0  0  0  0  0  0  0  0
   73.3606    1.2204  101.1520 C   0  0  0  0  0  0  0  0  0  0  0  0
   71.1477   -3.5187  103.1545 O   0  0  0  0  0  0  0  0  0  0  0  0
   71.0497   -1.1685  106.0448 O   0  0  0  0  0  0  0  0  0  0  0  0
   70.2556   -4.4684  102.6000 C   0  0  0  0  0  0  0  0  0  0  0  0
   70.7873   -5.3668  101.7321 C   0  0  0  0  0  0  0  0  0  0  0  0
   68.8707   -4.2217  102.7167 C   0  0  0  0  0  0  0  0  0  0  0  0
   68.5280   -3.2883  103.6529 C   0  0  0  0  0  0  0  0  0  0  0  0
   71.1283   -6.4034  102.1039 O   0  0  0  0  0  0  0  0  0  0  0  0
   70.7653   -5.1540  100.4045 O   0  0  0  0  0  0  0  0  0  0  0  0
  1  2  1  0
  1  3  2  0
  4  2  1  6
  4  5  1  0
  4  6  1  0
  6  7  1  0
  7  8  1  0
  5  9  1  0
  7 10  1  0
  9 10  1  0
 10 11  1  0
  8 12  1  0
 11 12  1  0
  1 13  1  0
 12 14  1  0
 14 15  1  0
 15 16  1  1
  6 17  1  0
 13 17  1  0
 15 18  1  0
 14 19  1  1
 18 20  1  0
 20 21  1  0
 20 22  2  0
 16 23  1  0
 22 23  1  0
 21 24  2  0
 21 25  1  0
M  END
$$$$
7
     RDKit          3D

 10 10  0  0  0  0  0  0  0  0999 V2000
   74.9088    2.6714   99.7708 O   0  0  0  0  0  0  0  0  0  0  0  0
   75.0074    2.7277  101.0306 C   0  0  0  0  0  0  0  0  0  0  0  0
   75.3265    3.5647  101.7233 O   0  0  0  0  0  0  0  0  0  0  0  0
   74.6036    1.3843  101.7023 C   0  0  1  0  0  0  0  0  0  0  0  0
   74.4783    0.2767  101.1353 N   0  0  0  0  0  0  0  0  0  0  0  0
   74.4895    1.3902  103.1269 C   0  0  0  0  0  0  0  0  0  0  0  0
   74.1688   -0.8825  101.7197 C   0  0  0  0  0  0  0  0  0  0  0  0
   74.3637    0.0377  103.6152 C   0  0  2  0  0  0  0  0  0  0  0  0
   74.0129   -0.8621  102.9921 N   0  0  0  0  0  0  0  0  0  0  0  0
   74.0433    0.0438  105.0538 N   0  0  0  0  0  0  0  0  0  0  0  0
  1  2  2  0
  2  3  1  0
  4  2  1  1
  4  5  1  0
  4  6  1  0
  5  7  1  0
  6  8  1  0
  7  9  1  0
  8  9  1  0
  8 10  1  1
M  END
$$$$
70
     RDKit          3D

 25 27  0  0  0  0  0  0  0  0999 V2000
   74.8931   -0.5078  105.5960 N   0  0  0  0  0  0  0  0  0  0  0  0
   73.7145   -0.8723  105.1113 C   0  0  1  0  0  0  0  0  0  0  0  0
   72.7318   -1.4322  105.7272 N   0  0  0  0  0  0  0  0  0  0  0  0
   73.4207   -0.4395  103.7391 C   0  0  1  0  0  0  0  0  0  0  0  0
   71.5232   -1.6471  105.0769 C   0  0  0  0  0  0  0  0  0  0  0  0
   74.5205    0.2062  103.0731 C   0  0  2  0  0  0  0  0  0  0  0  0
   72.1849   -0.8871  103.2300 C   0  0  0  0  0  0  0  0  0  0  0  0
   75.5844    0.6293  103.6852 N   0  0  0  0  0  0  0  0  0  0  0  0
   71.9388   -0.6487  101.8350 O   0  0  0  0  0  0  0  0  0  0  0  0
   75.7484    0.2251  104.8784 C   0  0  0  0  0  0  0  0  0  0  0  0
   74.2250    1.0450  101.9453 N   0  0  0  0  0  0  0  0  0  0  0  0
   71.3619   -1.5381  103.8591 N   0  0  0  0  0  0  0  0  0  0  0  0
   69.9950   -1.9606  103.3801 C   0  0  2  0  0  0  0  0  0  0  0  0
   69.0053   -2.2022  104.3459 O   0  0  0  0  0  0  0  0  0  0  0  0
   68.2600   -3.3637  103.8306 C   0  0  0  0  0  0  0  0  0  0  0  0
   68.5182   -3.5488  102.4818 C   0  0  1  0  0  0  0  0  0  0  0  0
   75.0017    2.0329  101.3870 C   0  0  0  0  0  0  0  0  0  0  0  0
   69.8678   -3.0318  102.3504 C   0  0  1  0  0  0  0  0  0  0  0  0
   74.5400    2.7367  100.2223 C   0  0  0  0  0  0  0  0  0  0  0  0
   70.2982   -2.7298  101.0101 O   0  0  0  0  0  0  0  0  0  0  0  0
   68.5027   -4.8192  101.8915 O   0  0  0  0  0  0  0  0  0  0  0  0
   69.1401   -5.9585  102.4393 C   0  0  0  0  0  0  0  0  0  0  0  0
   75.5353    3.2775   99.4725 O   0  0  0  0  0  0  0  0  0  0  0  0
   69.9589   -6.6253  101.5344 C   0  0  0  0  0  0  0  0  0  0  0  0
   71.2513   -6.0701  101.4694 O   0  0  0  0  0  0  0  0  0  0  0  0
  2  1  1  1
  2  3  1  0
  2  4  1  0
  3  5  1  0
  4  6  1  0
  4  7  1  6
  6  8  1  0
  7  9  2  0
  1 10  1  0
  8 10  1  0
  6 11  1  1
  5 12  1  0
  7 12  1  0
 13 12  1  1
 13 14  1  0
 14 15  1  0
 15 16  1  0
 11 17  1  0
 13 18  1  0
 16 18  1  0
 17 19  1  0
 18 20  1  6
 16 21  1  1
 21 22  1  0
 19 23  1  0
 22 24  1  0
 24 25  1  0
M  END
$$$$
71
     RDKit          3D

 25 27  0  0  0  0  0  0  0  0999 V2000
   74.5860   -1.2261  105.4439 O   0  0  0  0  0  0  0  0  0  0  0  0
   74.7300   -0.0631  104.7522 C   0  0  0  0  0  0  0  0  0  0  0  0
   75.6359    0.7654  104.9638 N   0  0  0  0  0  0  0  0  0  0  0  0
   74.0981   -0.1288  103.3927 C   0  0  2  0  0  0  0  0  0  0  0  0
   74.4728    0.9237  102.5115 C   0  0  1  0  0  0  0  0  0  0  0  0
   73.0095   -0.9625  103.1033 N   0  0  0  0  0  0  0  0  0  0  0  0
   75.4568    1.8602  102.8625 N   0  0  0  0  0  0  0  0  0  0  0  0
   73.9900    1.0739  101.1034 N   0  0  0  0  0  0  0  0  0  0  0  0
   76.0599    1.6014  104.0965 C   0  0  0  0  0  0  0  0  0  0  0  0
   72.0960   -1.3138  104.0251 C   0  0  0  0  0  0  0  0  0  0  0  0
   71.0583   -2.1592  103.7245 C   0  0  2  0  0  0  0  0  0  0  0  0
   74.4490    2.2185  100.6066 C   0  0  0  0  0  0  0  0  0  0  0  0
   69.9873   -1.6765  102.9114 C   0  0  2  0  0  0  0  0  0  0  0  0
   68.4856   -1.8140  103.4867 C   0  0  0  0  0  0  0  0  0  0  0  0
   75.4956    2.7934  101.5084 N   0  0  0  0  0  0  0  0  0  0  0  0
   70.0925   -1.2655  101.6401 O   0  0  0  0  0  0  0  0  0  0  0  0
   69.1176   -1.4809  100.7719 C   0  0  0  0  0  0  0  0  0  0  0  0
   70.6841   -2.8062  105.0561 O   0  0  0  0  0  0  0  0  0  0  0  0
   68.4334   -2.2750  104.6408 O   0  0  0  0  0  0  0  0  0  0  0  0
   69.4158   -3.4186  105.0428 C   0  0  0  0  0  0  0  0  0  0  0  0
   74.3448    3.0424   99.5414 O   0  0  0  0  0  0  0  0  0  0  0  0
   68.7805   -2.7691  100.4873 C   0  0  0  0  0  0  0  0  0  0  0  0
   67.8442   -3.0472   99.4999 O   0  0  0  0  0  0  0  0  0  0  0  0
   68.1725   -0.3579  100.6367 C   0  0  0  0  0  0  0  0  0  0  0  0
   68.6748    0.9292  100.7601 O   0  0  0  0  0  0  0  0  0  0  0  0
  1  2  2  0
  2  3  1  0
  2  4  1  0
  4  5  1  0
  4  6  1  1
  5  7  1  0
  5  8  1  6
  3  9  1  0
  7  9  1  0
  6 10  1  0
 11 10  1  1
  8 12  1  0
 11 13  1  0
 13 14  1  0
  7 15  1  0
 12 15  1  0
 13 16  1  6
 16 17  1  0
 11 18  1  0
 14 19  1  0
 18 20  1  0
 19 20  1  0
 12 21  2  0
 17 22  1  0
 22 23  1  0
 17 24  1  0
 24 25  1  0
M  END
$$$$
72
     RDKit          3D

 25 27  0  0  0  0  0  0  0  0999 V2000
   75.0136   -0.3320  105.0044 N   0  0  0  0  0  0  0  0  0  0  0  0
   75.2509    0.4453  104.0902 C   0  0  2  0  0  0  0  0  0  0  0  0
   73.6958   -0.7411  105.0505 C   0  0  0  0  0  0  0  0  0  0  0  0
   73.0676   -0.4633  104.0192 N   0  0  0  0  0  0  0  0  0  0  0  0
   74.3680    0.4274  103.1695 C   0  0  0  0  0  0  0  0  0  0  0  0
   74.1685    0.8716  101.9385 N   0  0  0  0  0  0  0  0  0  0  0  0
   75.2672    1.6739  101.6992 C   0  0  2  0  0  0  0  0  0  0  0  0
   76.2397    1.7811  102.6015 N   0  0  0  0  0  0  0  0  0  0  0  0
   76.2906    1.1765  103.7366 C   0  0  0  0  0  0  0  0  0  0  0  0
   75.2882    2.4434  100.5153 N   0  0  0  0  0  0  0  0  0  0  0  0
   71.8209   -0.7578  103.4655 C   0  0  0  0  0  0  0  0  0  0  0  0
   71.8077   -2.2093  103.1867 O   0  0  0  0  0  0  0  0  0  0  0  0
   70.5014   -2.6177  102.6872 C   0  0  1  0  0  0  0  0  0  0  0  0
   70.4986   -3.7272  101.9171 C   0  0  1  0  0  0  0  0  0  0  0  0
   69.6610   -2.6613  103.9311 C   0  0  0  0  0  0  0  0  0  0  0  0
   69.1052   -4.2332  101.8137 O   0  0  0  0  0  0  0  0  0  0  0  0
   70.0220   -3.7005  104.7083 O   0  0  0  0  0  0  0  0  0  0  0  0
   68.7702   -5.1659  100.7983 C   0  0  1  0  0  0  0  0  0  0  0  0
   70.9069   -3.6948  100.5396 C   0  0  2  0  0  0  0  0  0  0  0  0
   69.8552   -4.4328   99.8150 C   0  0  2  0  0  0  0  0  0  0  0  0
   69.0785   -6.4386  101.1636 C   0  0  0  0  0  0  0  0  0  0  0  0
   72.1427   -3.4024  100.1967 O   0  0  0  0  0  0  0  0  0  0  0  0
   68.5499   -6.9592  101.9803 O   0  0  0  0  0  0  0  0  0  0  0  0
   70.2301   -7.0618  100.7023 O   0  0  0  0  0  0  0  0  0  0  0  0
   69.6892   -4.2848   98.3703 C   0  0  0  0  0  0  0  0  0  0  0  0
  1  2  1  0
  1  3  1  0
  3  4  1  0
  2  5  1  0
  4  5  1  0
  5  6  1  0
  6  7  1  0
  7  8  1  0
  2  9  1  6
  8  9  1  0
  7 10  1  1
  4 11  1  0
 11 12  1  0
 12 13  1  0
 13 14  1  0
 13 15  1  1
 14 16  1  6
 15 17  1  0
 16 18  1  0
 14 19  1  0
 18 20  1  0
 19 20  1  0
 18 21  1  1
 19 22  1  1
 21 23  1  0
 21 24  2  0
 20 25  1  6
M  END
$$$$
73
     RDKit          3D

 25 28  0  0  0  0  0  0  0  0999 V2000
   75.1408   -0.4373  105.5723 N   0  0  0  0  0  0  0  0  0  0  0  0
   74.6606   -0.0505  104.4043 C   0  0  1  0  0  0  0  0  0  0  0  0
   75.4317    0.7909  103.5632 N   0  0  0  0  0  0  0  0  0  0  0  0
   73.4936   -0.5756  103.7787 C   0  0  0  0  0  0  0  0  0  0  0  0
   76.6099    1.3054  104.0192 N   0  0  0  0  0  0  0  0  0  0  0  0
   72.6926   -1.4694  104.5072 N   0  0  0  0  0  0  0  0  0  0  0  0
   73.0172   -0.2621  102.5089 N   0  0  0  0  0  0  0  0  0  0  0  0
   75.0232    0.9216  102.4425 C   0  0  1  0  0  0  0  0  0  0  0  0
   71.9754   -1.0249  102.1973 C   0  0  0  0  0  0  0  0  0  0  0  0
   71.6767   -1.8123  103.3914 C   0  0  0  0  0  0  0  0  0  0  0  0
   70.5974   -2.8364  103.6878 C   0  0  1  0  0  0  0  0  0  0  0  0
   73.8755    0.5456  101.8419 C   0  0  2  0  0  0  0  0  0  0  0  0
   75.7751    1.9675  101.6248 N   0  0  0  0  0  0  0  0  0  0  0  0
   69.3518   -2.4975  103.0601 C   0  0  2  0  0  0  0  0  0  0  0  0
   75.1100    2.5219  100.5077 C   0  0  0  0  0  0  0  0  0  0  0  0
   71.0967   -4.1755  103.2070 O   0  0  0  0  0  0  0  0  0  0  0  0
   70.1758   -5.0169  103.1668 C   0  0  2  0  0  0  0  0  0  0  0  0
   70.3176   -5.9747  102.1047 C   0  0  0  0  0  0  0  0  0  0  0  0
   68.4021   -1.7894  103.8202 O   0  0  0  0  0  0  0  0  0  0  0  0
   68.7160   -3.9811  102.8557 C   0  0  0  0  0  0  0  0  0  0  0  0
   73.9093    2.0411  100.1028 C   0  0  0  0  0  0  0  0  0  0  0  0
   73.4032    0.9873  100.6060 C   0  0  0  0  0  0  0  0  0  0  0  0
   71.4095   -6.2212  101.8657 O   0  0  0  0  0  0  0  0  0  0  0  0
   69.1786   -6.3391  101.5846 O   0  0  0  0  0  0  0  0  0  0  0  0
   75.9109    3.5897   99.8786 O   0  0  0  0  0  0  0  0  0  0  0  0
  2  1  1  6
  2  3  1  0
  2  4  1  0
  3  5  1  0
  4  6  1  0
  4  7  1  0
  3  8  1  0
  7  9  1  0
  6 10  1  0
  9 10  1  0
 11 10  1  6
  7 12  1  0
  8 12  1  0
  8 13  1  1
 11 14  1  0
 13 15  1  0
 11 16  1  0
 16 17  1  0
 17 18  1  6
 14 19  1  1
 14 20  1  0
 17 20  1  0
 15 21  1  0
 12 22  1  1
 21 22  1  0
 18 23  2  0
 18 24  1  0
 15 25  2  0
M  END
$$$$
74
     RDKit          3D

 25 28  0  0  0  0  0  0  0  0999 V2000
   75.3467    3.1685  100.1504 O   0  0  0  0  0  0  0  0  0  0  0  0
   74.7255    2.3321  100.8492 C   0  0  0  0  0  0  0  0  0  0  0  0
   73.6068    2.0873  100.7285 N   0  0  0  0  0  0  0  0  0  0  0  0
   75.4388    1.7527  102.0449 N   0  0  0  0  0  0  0  0  0  0  0  0
   74.8082    0.8345  102.9013 C   0  0  1  0  0  0  0  0  0  0  0  0
   75.2160    0.8273  104.0993 C   0  0  0  0  0  0  0  0  0  0  0  0
   73.4519    0.4337  102.6914 O   0  0  0  0  0  0  0  0  0  0  0  0
   73.3687   -0.4327  103.8477 C   0  0  2  0  0  0  0  0  0  0  0  0
   72.1954   -1.2252  104.0429 C   0  0  2  0  0  0  0  0  0  0  0  0
   74.3825   -0.2165  104.7413 C   0  0  0  0  0  0  0  0  0  0  0  0
   71.8840   -1.8459  105.1981 O   0  0  0  0  0  0  0  0  0  0  0  0
   71.5405   -1.9530  102.9586 O   0  0  0  0  0  0  0  0  0  0  0  0
   70.4852   -2.7030  102.9526 C   0  0  1  0  0  0  0  0  0  0  0  0
   70.6562   -2.6042  105.1860 C   0  0  0  0  0  0  0  0  0  0  0  0
   70.1564   -3.1375  101.5941 C   0  0  1  0  0  0  0  0  0  0  0  0
   70.6460   -3.2548  106.3468 O   0  0  0  0  0  0  0  0  0  0  0  0
   70.0113   -3.2043  104.1274 C   0  0  1  0  0  0  0  0  0  0  0  0
   68.9483   -4.0371  104.1934 C   0  0  0  0  0  0  0  0  0  0  0  0
   70.6363   -2.8175  100.3494 O   0  0  0  0  0  0  0  0  0  0  0  0
   71.0922   -3.9093   99.3628 C   0  0  0  0  0  0  0  0  0  0  0  0
   71.5731   -4.9824  100.3028 C   0  0  0  0  0  0  0  0  0  0  0  0
   70.5875   -5.3403  101.3083 C   0  0  0  0  0  0  0  0  0  0  0  0
   69.8277   -4.4578  101.8313 C   0  0  0  0  0  0  0  0  0  0  0  0
   70.5720   -6.6439  101.5047 O   0  0  0  0  0  0  0  0  0  0  0  0
   68.6450   -4.8953  102.6704 C   0  0  0  0  0  0  0  0  0  0  0  0
  1  2  2  0
  2  3  1  0
  2  4  1  0
  5  4  1  1
  5  6  1  0
  5  7  1  0
  7  8  1  0
  8  9  1  0
  6 10  1  0
  8 10  1  1
  9 11  1  1
  9 12  1  0
 13 12  1  1
 11 14  1  0
 13 15  1  0
 14 16  2  0
 13 17  1  0
 14 17  1  0
 17 18  1  1
 15 19  1  6
 19 20  1  0
 20 21  1  0
 21 22  1  0
 15 23  1  0
 22 23  1  0
 22 24  2  0
 18 25  1  0
 23 25  1  0
M  END
$$$$
75
     RDKit          3D

 25 27  0  0  0  0  0  0  0  0999 V2000
   74.8931   -0.5078  105.5960 N   0  0  0  0  0  0  0  0  0  0  0  0
   73.7145   -0.8723  105.1113 C   0  0  0  0  0  0  0  0  0  0  0  0
   75.6633    0.2754  104.7263 C   0  0  2  0  0  0  0  0  0  0  0  0
   73.3875   -0.3447  103.9750 N   0  0  0  0  0  0  0  0  0  0  0  0
   72.3298   -0.5755  103.2340 C   0  0  0  0  0  0  0  0  0  0  0  0
   76.8170    0.8760  104.8068 N   0  0  0  0  0  0  0  0  0  0  0  0
   74.6464    0.3953  103.5798 C   0  0  0  0  0  0  0  0  0  0  0  0
   74.8544    1.0606  102.3834 N   0  0  0  0  0  0  0  0  0  0  0  0
   75.1532    2.2695  102.2226 C   0  0  0  0  0  0  0  0  0  0  0  0
   72.2005   -0.4660  101.9565 O   0  0  0  0  0  0  0  0  0  0  0  0
   74.8426    2.6767  100.8155 C   0  0  0  0  0  0  0  0  0  0  0  0
   71.5153   -1.7303  103.6442 C   0  0  0  0  0  0  0  0  0  0  0  0
   75.7939    3.2221  100.0017 O   0  0  0  0  0  0  0  0  0  0  0  0
   70.2823   -1.9297  102.9941 N   0  0  0  0  0  0  0  0  0  0  0  0
   71.5007   -2.3089  104.6361 O   0  0  0  0  0  0  0  0  0  0  0  0
   69.2099   -2.7988  103.4612 C   0  0  0  0  0  0  0  0  0  0  0  0
   68.5342   -2.4341  104.6303 O   0  0  0  0  0  0  0  0  0  0  0  0
   68.7697   -3.9293  102.6983 C   0  0  0  0  0  0  0  0  0  0  0  0
   68.6088   -3.5393  101.2156 C   0  0  1  0  0  0  0  0  0  0  0  0
   69.0933   -2.5171  100.7054 C   0  0  2  0  0  0  0  0  0  0  0  0
   69.9011   -1.5833  101.5992 C   0  0  0  0  0  0  0  0  0  0  0  0
   68.9060   -2.1048   99.3974 O   0  0  0  0  0  0  0  0  0  0  0  0
   68.1597   -3.1076   98.8905 C   0  0  0  0  0  0  0  0  0  0  0  0
   68.0468   -4.1262  100.0300 O   0  0  0  0  0  0  0  0  0  0  0  0
   67.6371   -3.2933   97.6395 C   0  0  0  0  0  0  0  0  0  0  0  0
  1  2  1  0
  1  3  1  0
  2  4  1  0
  4  5  1  0
  3  6  1  1
  3  7  1  0
  4  7  1  0
  7  8  1  0
  8  9  1  0
  5 10  2  0
  9 11  1  0
  5 12  1  0
 11 13  1  0
 12 14  1  0
 12 15  2  0
 14 16  1  0
 16 17  2  0
 16 18  1  0
 19 18  1  6
 19 20  1  0
 14 21  1  0
 20 21  1  1
 20 22  1  0
 22 23  1  0
 19 24  1  0
 23 24  1  0
 23 25  2  0
M  END
$$$$
76
     RDKit          3D

 25 26  0  0  0  0  0  0  0  0999 V2000
   74.5860   -1.2261  105.4439 O   0  0  0  0  0  0  0  0  0  0  0  0
   74.7300   -0.0631  104.7522 C   0  0  0  0  0  0  0  0  0  0  0  0
   75.6359    0.7654  104.9638 N   0  0  0  0  0  0  0  0  0  0  0  0
   74.0981   -0.1288  103.3927 C   0  0  2  0  0  0  0  0  0  0  0  0
   74.4728    0.9237  102.5115 C   0  0  1  0  0  0  0  0  0  0  0  0
   73.0095   -0.9625  103.1033 N   0  0  0  0  0  0  0  0  0  0  0  0
   75.4568    1.8602  102.8625 N   0  0  0  0  0  0  0  0  0  0  0  0
   73.9900    1.0739  101.1034 N   0  0  0  0  0  0  0  0  0  0  0  0
   76.0599    1.6014  104.0965 C   0  0  0  0  0  0  0  0  0  0  0  0
   72.0960   -1.3138  104.0251 C   0  0  0  0  0  0  0  0  0  0  0  0
   71.0583   -2.1592  103.7245 C   0  0  0  0  0  0  0  0  0  0  0  0
   74.4490    2.2185  100.6066 C   0  0  0  0  0  0  0  0  0  0  0  0
   69.9873   -1.6765  102.9114 C   0  0  2  0  0  0  0  0  0  0  0  0
   68.4856   -1.8140  103.4867 C   0  0  0  0  0  0  0  0  0  0  0  0
   75.4956    2.7934  101.5084 N   0  0  0  0  0  0  0  0  0  0  0  0
   69.9208   -2.3808  101.5181 C   0  0  0  0  0  0  0  0  0  0  0  0
   74.3940    3.0709   99.5592 O   0  0  0  0  0  0  0  0  0  0  0  0
   69.5821   -3.6305  101.5912 O   0  0  0  0  0  0  0  0  0  0  0  0
   67.7340   -1.2247  102.9437 O   0  0  0  0  0  0  0  0  0  0  0  0
   68.4260   -2.3235  104.5950 O   0  0  0  0  0  0  0  0  0  0  0  0
   71.8887   -0.8863  105.2136 O   0  0  0  0  0  0  0  0  0  0  0  0
   70.0448   -4.6801  100.6666 C   0  0  0  0  0  0  0  0  0  0  0  0
   70.0288   -5.8581  101.0715 C   0  0  0  0  0  0  0  0  0  0  0  0
   69.2178   -4.5944   99.3092 C   0  0  0  0  0  0  0  0  0  0  0  0
   71.5567   -4.1986  100.4694 C   0  0  0  0  0  0  0  0  0  0  0  0
  1  2  2  0
  2  3  1  0
  2  4  1  0
  4  5  1  0
  4  6  1  1
  5  7  1  0
  5  8  1  6
  3  9  1  0
  7  9  1  0
  6 10  1  0
 10 11  1  0
  8 12  1  0
 13 11  1  1
 13 14  1  0
  7 15  1  0
 12 15  1  0
 13 16  1  0
 12 17  2  0
 16 18  1  0
 14 19  2  0
 14 20  1  0
 10 21  2  0
 18 22  1  0
 22 23  1  0
 22 24  1  0
 22 25  1  0
M  END
$$$$
77
     RDKit          3D

 25 27  0  0  0  0  0  0  0  0999 V2000
   75.0136   -0.3320  105.0044 N   0  0  0  0  0  0  0  0  0  0  0  0
   75.2509    0.4453  104.0902 C   0  0  2  0  0  0  0  0  0  0  0  0
   73.6958   -0.7411  105.0505 C   0  0  0  0  0  0  0  0  0  0  0  0
   73.0676   -0.4633  104.0192 N   0  0  0  0  0  0  0  0  0  0  0  0
   74.3680    0.4274  103.1695 C   0  0  0  0  0  0  0  0  0  0  0  0
   74.1685    0.8716  101.9385 N   0  0  0  0  0  0  0  0  0  0  0  0
   75.2672    1.6739  101.6992 C   0  0  2  0  0  0  0  0  0  0  0  0
   76.2397    1.7811  102.6015 N   0  0  0  0  0  0  0  0  0  0  0  0
   76.2906    1.1765  103.7366 C   0  0  0  0  0  0  0  0  0  0  0  0
   75.2882    2.4434  100.5153 N   0  0  0  0  0  0  0  0  0  0  0  0
   71.8209   -0.7578  103.4655 C   0  0  0  0  0  0  0  0  0  0  0  0
   71.8077   -2.2093  103.1867 O   0  0  0  0  0  0  0  0  0  0  0  0
   70.5014   -2.6177  102.6872 C   0  0  1  0  0  0  0  0  0  0  0  0
   70.4986   -3.7272  101.9171 C   0  0  2  0  0  0  0  0  0  0  0  0
   69.6610   -2.6613  103.9311 C   0  0  0  0  0  0  0  0  0  0  0  0
   69.1052   -4.2332  101.8137 O   0  0  0  0  0  0  0  0  0  0  0  0
   68.8800   -5.3974  101.0696 C   0  0  0  0  0  0  0  0  0  0  0  0
   71.3742   -4.6729  102.4565 O   0  0  0  0  0  0  0  0  0  0  0  0
   69.0438   -5.0955   99.6707 C   0  0  2  0  0  0  0  0  0  0  0  0
   68.9047   -6.1486   98.8893 O   0  0  0  0  0  0  0  0  0  0  0  0
   68.4037   -2.1420  103.8218 O   0  0  0  0  0  0  0  0  0  0  0  0
   70.3416   -4.3423   99.5349 C   0  0  1  0  0  0  0  0  0  0  0  0
   70.7062   -3.3923  100.4624 C   0  0  2  0  0  0  0  0  0  0  0  0
   72.2157   -3.2381  100.2964 O   0  0  0  0  0  0  0  0  0  0  0  0
   71.3993   -5.3637   99.3633 O   0  0  0  0  0  0  0  0  0  0  0  0
  1  2  1  0
  1  3  1  0
  3  4  1  0
  2  5  1  0
  4  5  1  0
  5  6  1  0
  6  7  1  0
  7  8  1  0
  2  9  1  6
  8  9  1  0
  7 10  1  1
  4 11  1  0
 11 12  1  0
 12 13  1  0
 13 14  1  0
 13 15  1  1
 14 16  1  0
 16 17  1  0
 14 18  1  1
 17 19  1  0
 19 20  1  6
 15 21  1  0
 19 22  1  0
 14 23  1  0
 22 23  1  0
 23 24  1  1
 22 25  1  1
M  END
$$$$
78
     RDKit          3D

 26 29  0  0  0  0  0  0  0  0999 V2000
   75.3467    3.1685  100.1504 O   0  0  0  0  0  0  0  0  0  0  0  0
   74.7255    2.3321  100.8492 C   0  0  0  0  0  0  0  0  0  0  0  0
   73.6068    2.0873  100.7285 N   0  0  0  0  0  0  0  0  0  0  0  0
   75.4388    1.7527  102.0449 N   0  0  0  0  0  0  0  0  0  0  0  0
   74.8082    0.8345  102.9013 C   0  0  1  0  0  0  0  0  0  0  0  0
   75.2160    0.8273  104.0993 C   0  0  0  0  0  0  0  0  0  0  0  0
   73.4519    0.4337  102.6914 O   0  0  0  0  0  0  0  0  0  0  0  0
   73.3687   -0.4327  103.8477 C   0  0  2  0  0  0  0  0  0  0  0  0
   72.1954   -1.2252  104.0429 C   0  0  2  0  0  0  0  0  0  0  0  0
   74.3825   -0.2165  104.7413 C   0  0  0  0  0  0  0  0  0  0  0  0
   71.8840   -1.8459  105.1981 O   0  0  0  0  0  0  0  0  0  0  0  0
   71.5405   -1.9530  102.9586 O   0  0  0  0  0  0  0  0  0  0  0  0
   70.4852   -2.7030  102.9526 C   0  0  1  0  0  0  0  0  0  0  0  0
   70.6562   -2.6042  105.1860 C   0  0  0  0  0  0  0  0  0  0  0  0
   70.1564   -3.1375  101.5941 C   0  0  1  0  0  0  0  0  0  0  0  0
   70.6460   -3.2548  106.3468 O   0  0  0  0  0  0  0  0  0  0  0  0
   70.0113   -3.2043  104.1274 C   0  0  1  0  0  0  0  0  0  0  0  0
   68.9483   -4.0371  104.1934 C   0  0  0  0  0  0  0  0  0  0  0  0
   70.6363   -2.8175  100.3494 O   0  0  0  0  0  0  0  0  0  0  0  0
   71.0922   -3.9093   99.3628 C   0  0  0  0  0  0  0  0  0  0  0  0
   71.5731   -4.9824  100.3028 C   0  0  1  0  0  0  0  0  0  0  0  0
   69.5221   -4.4629  101.7074 C   0  0  1  0  0  0  0  0  0  0  0  0
   70.2169   -5.4490  100.8415 C   0  0  1  0  0  0  0  0  0  0  0  0
   72.1348   -5.9896   99.6452 O   0  0  0  0  0  0  0  0  0  0  0  0
   68.9542   -4.9417  103.0424 C   0  0  0  0  0  0  0  0  0  0  0  0
   69.0916   -5.5418   99.8579 O   0  0  0  0  0  0  0  0  0  0  0  0
  1  2  2  0
  2  3  1  0
  2  4  1  0
  5  4  1  1
  5  6  1  0
  5  7  1  0
  7  8  1  0
  8  9  1  0
  6 10  1  0
  8 10  1  1
  9 11  1  1
  9 12  1  0
 13 12  1  1
 11 14  1  0
 13 15  1  0
 14 16  2  0
 13 17  1  0
 14 17  1  0
 17 18  1  1
 15 19  1  6
 19 20  1  0
 20 21  1  0
 15 22  1  0
 21 23  1  0
 22 23  1  0
 21 24  1  6
 18 25  1  0
 22 25  1  1
 23 26  1  6
M  END
$$$$
79
     RDKit          3D

 26 28  0  0  0  0  0  0  0  0999 V2000
   75.7609    3.4006   99.4945 O   0  0  0  0  0  0  0  0  0  0  0  0
   75.1048    2.7712  100.5306 C   0  0  0  0  0  0  0  0  0  0  0  0
   73.8036    2.7487  100.4846 O   0  0  0  0  0  0  0  0  0  0  0  0
   75.8016    2.3034  101.6528 N   0  0  0  0  0  0  0  0  0  0  0  0
   75.2797    1.2376  102.4098 C   0  0  1  0  0  0  0  0  0  0  0  0
   75.4168    1.3810  103.8300 C   0  0  0  0  0  0  0  0  0  0  0  0
   74.0910    0.4639  102.0508 C   0  0  0  0  0  0  0  0  0  0  0  0
   73.5454   -0.4672  102.8723 C   0  0  2  0  0  0  0  0  0  0  0  0
   72.5070   -1.3086  102.4459 C   0  0  0  0  0  0  0  0  0  0  0  0
   72.1504   -1.4396  101.2300 O   0  0  0  0  0  0  0  0  0  0  0  0
   71.5911   -1.8259  103.4274 N   0  0  0  0  0  0  0  0  0  0  0  0
   73.9476   -0.4287  104.2781 C   0  0  2  0  0  0  0  0  0  0  0  0
   74.9315    0.4060  104.7188 C   0  0  0  0  0  0  0  0  0  0  0  0
   70.4312   -2.5048  102.9333 C   0  0  1  0  0  0  0  0  0  0  0  0
   73.4671   -1.3817  105.3051 O   0  0  0  0  0  0  0  0  0  0  0  0
   70.4936   -3.8560  103.4980 C   0  0  0  0  0  0  0  0  0  0  0  0
   69.3745   -2.0251  102.4138 C   0  0  2  0  0  0  0  0  0  0  0  0
   68.2889   -2.7772  102.0399 C   0  0  2  0  0  0  0  0  0  0  0  0
   69.3345   -0.4747  101.8515 C   0  0  0  0  0  0  0  0  0  0  0  0
   68.1535    0.0497  101.2837 C   0  0  1  0  0  0  0  0  0  0  0  0
   68.0571    1.4793  100.8012 C   0  0  0  0  0  0  0  0  0  0  0  0
   67.2464   -2.2371  101.2655 C   0  0  0  0  0  0  0  0  0  0  0  0
   68.2565   -4.1079  102.6734 C   0  0  0  0  0  0  0  0  0  0  0  0
   67.1985   -0.9069  100.8508 C   0  0  0  0  0  0  0  0  0  0  0  0
   69.2299   -4.5416  103.3155 N   0  0  0  0  0  0  0  0  0  0  0  0
   71.3522   -4.2567  104.3840 O   0  0  0  0  0  0  0  0  0  0  0  0
  1  2  1  0
  2  3  2  0
  2  4  1  0
  5  4  1  6
  5  6  1  0
  5  7  1  0
  7  8  1  0
  8  9  1  1
  9 10  2  0
  9 11  1  0
  8 12  1  0
  6 13  1  0
 12 13  1  0
 14 11  1  1
 12 15  1  6
 14 16  1  0
 14 17  1  0
 17 18  1  0
 17 19  1  6
 19 20  1  0
 20 21  1  6
 18 22  1  1
 18 23  1  0
 20 24  1  0
 22 24  1  0
 16 25  1  0
 23 25  1  0
 16 26  2  0
M  END
$$$$
8
     RDKit          3D

 10 11  0  0  0  0  0  0  0  0999 V2000
   75.0068    2.5626  101.0037 C   0  0  0  0  0  0  0  0  0  0  0  0
   74.5029    1.5050  101.3884 N   0  0  0  0  0  0  0  0  0  0  0  0
   74.8876    0.6972  102.4487 C   0  0  1  0  0  0  0  0  0  0  0  0
   74.6347    3.2002   99.9739 O   0  0  0  0  0  0  0  0  0  0  0  0
   75.8204    3.1585  101.9925 N   0  0  0  0  0  0  0  0  0  0  0  0
   75.8047    1.1794  103.3638 C   0  0  1  0  0  0  0  0  0  0  0  0
   76.2707    2.3874  103.0946 C   0  0  0  0  0  0  0  0  0  0  0  0
   74.2287   -0.5708  102.7764 N   0  0  0  0  0  0  0  0  0  0  0  0
   74.6263   -0.7619  104.0964 C   0  0  0  0  0  0  0  0  0  0  0  0
   75.6534    0.2440  104.4390 N   0  0  0  0  0  0  0  0  0  0  0  0
  1  2  1  0
  3  2  1  1
  1  4  2  0
  1  5  1  0
  3  6  1  0
  5  7  1  0
  6  7  1  1
  3  8  1  0
  8  9  1  0
  6 10  1  0
  9 10  1  0
M  END
$$$$
80
     RDKit          3D

 26 28  0  0  0  0  0  0  0  0999 V2000
   74.5860   -1.2261  105.4439 O   0  0  0  0  0  0  0  0  0  0  0  0
   74.7300   -0.0631  104.7522 C   0  0  0  0  0  0  0  0  0  0  0  0
   75.6359    0.7654  104.9638 N   0  0  0  0  0  0  0  0  0  0  0  0
   74.0981   -0.1288  103.3927 C   0  0  2  0  0  0  0  0  0  0  0  0
   74.4728    0.9237  102.5115 C   0  0  1  0  0  0  0  0  0  0  0  0
   73.0095   -0.9625  103.1033 N   0  0  0  0  0  0  0  0  0  0  0  0
   75.4568    1.8602  102.8625 N   0  0  0  0  0  0  0  0  0  0  0  0
   73.9900    1.0739  101.1034 N   0  0  0  0  0  0  0  0  0  0  0  0
   76.0599    1.6014  104.0965 C   0  0  0  0  0  0  0  0  0  0  0  0
   72.0960   -1.3138  104.0251 C   0  0  0  0  0  0  0  0  0  0  0  0
   71.0583   -2.1592  103.7245 C   0  0  0  0  0  0  0  0  0  0  0  0
   74.4490    2.2185  100.6066 C   0  0  0  0  0  0  0  0  0  0  0  0
   69.9873   -1.6765  102.9114 C   0  0  2  0  0  0  0  0  0  0  0  0
   68.4856   -1.8140  103.4867 C   0  0  1  0  0  0  0  0  0  0  0  0
   75.4956    2.7934  101.5084 N   0  0  0  0  0  0  0  0  0  0  0  0
   70.0925   -1.2655  101.6401 O   0  0  0  0  0  0  0  0  0  0  0  0
   69.1176   -1.4809  100.7719 C   0  0  0  0  0  0  0  0  0  0  0  0
   72.0160   -0.8707  105.2357 O   0  0  0  0  0  0  0  0  0  0  0  0
   67.8238   -1.2202  101.1025 C   0  0  1  0  0  0  0  0  0  0  0  0
   74.8436    2.9867   99.5863 O   0  0  0  0  0  0  0  0  0  0  0  0
   67.5344   -1.6168  102.5466 O   0  0  0  0  0  0  0  0  0  0  0  0
   68.4474   -2.9846  104.2186 O   0  0  0  0  0  0  0  0  0  0  0  0
   67.2985    0.2596  101.1613 C   0  0  1  0  0  0  0  0  0  0  0  0
   69.3177   -1.8989   99.5455 O   0  0  0  0  0  0  0  0  0  0  0  0
   67.5337    1.0742  102.1972 O   0  0  0  0  0  0  0  0  0  0  0  0
   68.0182    1.0572   99.9842 C   0  0  0  0  0  0  0  0  0  0  0  0
  1  2  2  0
  2  3  1  0
  2  4  1  0
  4  5  1  0
  4  6  1  1
  5  7  1  0
  5  8  1  6
  3  9  1  0
  7  9  1  0
  6 10  1  0
 10 11  1  0
  8 12  1  0
 13 11  1  6
 13 14  1  0
  7 15  1  0
 12 15  1  0
 13 16  1  0
 16 17  1  0
 10 18  2  0
 17 19  1  0
 12 20  2  0
 14 21  1  0
 19 21  1  1
 14 22  1  6
 19 23  1  0
 17 24  2  0
 23 25  1  0
 23 26  1  6
M  END
$$$$
81
     RDKit          3D

 26 28  0  0  0  0  0  0  0  0999 V2000
   75.4341    3.4210   99.6461 O   0  0  0  0  0  0  0  0  0  0  0  0
   75.0294    2.6338  100.6869 C   0  0  0  0  0  0  0  0  0  0  0  0
   75.7273    1.6225  101.1897 N   0  0  0  0  0  0  0  0  0  0  0  0
   75.2724    0.7860  102.1865 C   0  0  2  0  0  0  0  0  0  0  0  0
   73.6272    2.6155  101.0179 O   0  0  0  0  0  0  0  0  0  0  0  0
   74.2750   -0.1281  102.0511 C   0  0  0  0  0  0  0  0  0  0  0  0
   73.6733   -0.8107  103.0807 C   0  0  1  0  0  0  0  0  0  0  0  0
   73.9031   -0.3681  104.1593 C   0  0  2  0  0  0  0  0  0  0  0  0
   75.2924    1.1368  103.6469 C   0  0  0  0  0  0  0  0  0  0  0  0
   74.7695    0.5259  104.6279 C   0  0  0  0  0  0  0  0  0  0  0  0
   72.4786   -1.7170  102.7580 C   0  0  0  0  0  0  0  0  0  0  0  0
   73.0820   -1.0981  105.4134 N   0  0  0  0  0  0  0  0  0  0  0  0
   71.7443   -2.1653  103.8491 N   0  0  0  0  0  0  0  0  0  0  0  0
   72.1008   -2.0806  101.6151 O   0  0  0  0  0  0  0  0  0  0  0  0
   72.0284   -1.8114  105.1431 C   0  0  0  0  0  0  0  0  0  0  0  0
   70.4458   -2.7894  103.7248 C   0  0  1  0  0  0  0  0  0  0  0  0
   71.0844   -2.2026  105.9358 N   0  0  0  0  0  0  0  0  0  0  0  0
   70.3653   -3.1594  105.3670 C   0  0  2  0  0  0  0  0  0  0  0  0
   70.6124   -4.4133  105.6236 C   0  0  0  0  0  0  0  0  0  0  0  0
   69.2658   -2.1062  103.2175 C   0  0  0  0  0  0  0  0  0  0  0  0
   69.6844   -5.3962  105.2687 O   0  0  0  0  0  0  0  0  0  0  0  0
   68.1970   -2.7134  103.2481 O   0  0  0  0  0  0  0  0  0  0  0  0
   69.4690   -1.1198  102.2970 N   0  0  0  0  0  0  0  0  0  0  0  0
   68.3450   -0.3666  101.6770 C   0  0  0  0  0  0  0  0  0  0  0  0
   68.6281    0.5979  100.6703 C   0  0  0  0  0  0  0  0  0  0  0  0
   67.7378    1.6279  100.5549 C   0  0  0  0  0  0  0  0  0  0  0  0
  1  2  2  0
  2  3  1  0
  4  3  1  6
  2  5  1  0
  4  6  1  0
  7  6  1  6
  7  8  1  0
  4  9  1  0
  8 10  1  1
  9 10  1  0
  7 11  1  0
  8 12  1  0
 11 13  1  0
 11 14  2  0
 12 15  1  0
 13 15  1  0
 13 16  1  0
 15 17  2  0
 16 18  1  0
 17 18  1  0
 18 19  1  6
 16 20  1  1
 19 21  1  0
 20 22  2  0
 20 23  1  0
 23 24  1  0
 24 25  1  0
 25 26  1  0
M  END
$$$$
82
     RDKit          3D

 26 29  0  0  0  0  0  0  0  0999 V2000
   74.7873    2.9106  100.1427 C   0  0  0  0  0  0  0  0  0  0  0  0
   75.5325    2.7443  101.0909 N   0  0  0  0  0  0  0  0  0  0  0  0
   75.0122    3.5195   99.1627 O   0  0  0  0  0  0  0  0  0  0  0  0
   75.1825    1.8494  102.2075 C   0  0  2  0  0  0  0  0  0  0  0  0
   75.9442    1.4789  103.2617 N   0  0  0  0  0  0  0  0  0  0  0  0
   73.9467    1.0700  102.1098 N   0  0  0  0  0  0  0  0  0  0  0  0
   73.7324    0.2467  103.1964 C   0  0  0  0  0  0  0  0  0  0  0  0
   72.6390   -0.5058  103.3300 N   0  0  0  0  0  0  0  0  0  0  0  0
   75.3818    0.5583  104.1268 C   0  0  0  0  0  0  0  0  0  0  0  0
   74.4669   -0.0010  104.1998 C   0  0  0  0  0  0  0  0  0  0  0  0
   73.6687   -0.9161  104.8785 N   0  0  0  0  0  0  0  0  0  0  0  0
   72.6041   -1.1342  104.4267 C   0  0  0  0  0  0  0  0  0  0  0  0
   73.3552    2.4028  100.3035 C   0  0  0  0  0  0  0  0  0  0  0  0
   71.5641   -1.9582  104.9748 C   0  0  2  0  0  0  0  0  0  0  0  0
   70.5674   -2.3514  104.0539 C   0  0  2  0  0  0  0  0  0  0  0  0
   69.4771   -2.9820  104.5673 O   0  0  0  0  0  0  0  0  0  0  0  0
   73.3606    1.2204  101.1520 C   0  0  0  0  0  0  0  0  0  0  0  0
   71.1477   -3.5187  103.1545 O   0  0  0  0  0  0  0  0  0  0  0  0
   71.0497   -1.1685  106.0448 O   0  0  0  0  0  0  0  0  0  0  0  0
   70.2556   -4.4684  102.6000 C   0  0  0  0  0  0  0  0  0  0  0  0
   70.7873   -5.3668  101.7321 C   0  0  0  0  0  0  0  0  0  0  0  0
   68.8707   -4.2217  102.7167 C   0  0  0  0  0  0  0  0  0  0  0  0
   68.5280   -3.2883  103.6529 C   0  0  0  0  0  0  0  0  0  0  0  0
   71.1283   -6.4034  102.1039 O   0  0  0  0  0  0  0  0  0  0  0  0
   67.5787   -2.5814  103.6903 O   0  0  0  0  0  0  0  0  0  0  0  0
   71.3053   -4.8874  100.5459 O   0  0  0  0  0  0  0  0  0  0  0  0
  1  2  1  0
  1  3  2  0
  4  2  1  6
  4  5  1  0
  4  6  1  0
  6  7  1  0
  7  8  1  0
  5  9  1  0
  7 10  1  0
  9 10  1  0
 10 11  1  0
  8 12  1  0
 11 12  1  0
  1 13  1  0
 12 14  1  0
 14 15  1  0
 15 16  1  1
  6 17  1  0
 13 17  1  0
 15 18  1  0
 14 19  1  1
 18 20  1  0
 20 21  1  0
 20 22  2  0
 16 23  1  0
 22 23  1  0
 21 24  2  0
 23 25  2  0
 21 26  1  0
M  END
$$$$
83
     RDKit          3D

 26 28  0  0  0  0  0  0  0  0999 V2000
   75.7609    3.4006   99.4945 O   0  0  0  0  0  0  0  0  0  0  0  0
   75.1057    2.7142  100.4916 C   0  0  0  0  0  0  0  0  0  0  0  0
   75.7554    1.8943  101.3228 N   0  0  0  0  0  0  0  0  0  0  0  0
   75.0034    1.1674  102.2623 C   0  0  2  0  0  0  0  0  0  0  0  0
   73.7421    2.9148  100.6351 O   0  0  0  0  0  0  0  0  0  0  0  0
   75.6333    0.3463  103.1836 C   0  0  0  0  0  0  0  0  0  0  0  0
   73.6064    0.9442  102.1641 O   0  0  0  0  0  0  0  0  0  0  0  0
   73.2834   -0.1826  102.9575 C   0  0  2  0  0  0  0  0  0  0  0  0
   72.1694   -0.5663  103.2396 C   0  0  2  0  0  0  0  0  0  0  0  0
   72.0240   -1.5115  104.3760 C   0  0  1  0  0  0  0  0  0  0  0  0
   74.5692   -0.4990  103.6127 O   0  0  0  0  0  0  0  0  0  0  0  0
   71.2027   -0.7842  102.2534 O   0  0  0  0  0  0  0  0  0  0  0  0
   72.5085   -1.2431  105.5960 O   0  0  0  0  0  0  0  0  0  0  0  0
   70.5826   -2.0947  104.4236 C   0  0  2  0  0  0  0  0  0  0  0  0
   70.4061   -3.3562  104.9848 O   0  0  0  0  0  0  0  0  0  0  0  0
   70.0918   -1.7559  103.0162 C   0  0  1  0  0  0  0  0  0  0  0  0
   68.8042   -1.2586  102.6861 C   0  0  0  0  0  0  0  0  0  0  0  0
   68.8456   -0.4355  101.5784 O   0  0  0  0  0  0  0  0  0  0  0  0
   67.7076    0.5243  100.9820 C   0  0  0  0  0  0  0  0  0  0  0  0
   67.4490    0.2684   99.7523 C   0  0  0  0  0  0  0  0  0  0  0  0
   67.5858    1.5418  101.8200 O   0  0  0  0  0  0  0  0  0  0  0  0
   67.6146   -0.9007   99.0516 C   0  0  0  0  0  0  0  0  0  0  0  0
   66.9763   -1.1340   97.8138 C   0  0  0  0  0  0  0  0  0  0  0  0
   66.7253    1.2458   98.9940 C   0  0  0  0  0  0  0  0  0  0  0  0
   66.3974   -0.2785   97.3418 C   0  0  0  0  0  0  0  0  0  0  0  0
   66.1561    1.0262   97.8512 C   0  0  0  0  0  0  0  0  0  0  0  0
  1  2  2  0
  2  3  1  0
  4  3  1  6
  2  5  1  0
  4  6  1  0
  4  7  1  0
  8  7  1  1
  8  9  1  0
  9 10  1  0
  6 11  1  0
  8 11  1  0
  9 12  1  6
 10 13  1  1
 10 14  1  0
 14 15  1  6
 12 16  1  0
 14 16  1  0
 16 17  1  1
 17 18  1  0
 18 19  1  0
 19 20  1  0
 19 21  2  0
 20 22  1  0
 22 23  1  0
 20 24  1  0
 23 25  1  0
 24 26  1  0
 25 26  1  0
M  END
$$$$
84
     RDKit          3D

 26 27  0  0  0  0  0  0  0  0999 V2000
   74.5860   -1.2261  105.4439 O   0  0  0  0  0  0  0  0  0  0  0  0
   74.7300   -0.0631  104.7522 C   0  0  0  0  0  0  0  0  0  0  0  0
   75.6359    0.7654  104.9638 N   0  0  0  0  0  0  0  0  0  0  0  0
   74.0981   -0.1288  103.3927 C   0  0  2  0  0  0  0  0  0  0  0  0
   74.4728    0.9237  102.5115 C   0  0  1  0  0  0  0  0  0  0  0  0
   73.0095   -0.9625  103.1033 N   0  0  0  0  0  0  0  0  0  0  0  0
   75.4568    1.8602  102.8625 N   0  0  0  0  0  0  0  0  0  0  0  0
   73.9900    1.0739  101.1034 N   0  0  0  0  0  0  0  0  0  0  0  0
   76.0599    1.6014  104.0965 C   0  0  0  0  0  0  0  0  0  0  0  0
   72.0960   -1.3138  104.0251 C   0  0  0  0  0  0  0  0  0  0  0  0
   71.0583   -2.1592  103.7245 C   0  0  0  0  0  0  0  0  0  0  0  0
   74.4490    2.2185  100.6066 C   0  0  0  0  0  0  0  0  0  0  0  0
   69.9873   -1.6765  102.9114 C   0  0  2  0  0  0  0  0  0  0  0  0
   68.4856   -1.8140  103.4867 C   0  0  0  0  0  0  0  0  0  0  0  0
   75.4956    2.7934  101.5084 N   0  0  0  0  0  0  0  0  0  0  0  0
   69.9208   -2.3808  101.5181 C   0  0  0  0  0  0  0  0  0  0  0  0
   74.3940    3.0709   99.5592 O   0  0  0  0  0  0  0  0  0  0  0  0
   69.5821   -3.6305  101.5912 O   0  0  0  0  0  0  0  0  0  0  0  0
   67.7340   -1.2247  102.9437 O   0  0  0  0  0  0  0  0  0  0  0  0
   68.4260   -2.3235  104.5950 O   0  0  0  0  0  0  0  0  0  0  0  0
   71.8887   -0.8863  105.2136 O   0  0  0  0  0  0  0  0  0  0  0  0
   70.0448   -4.6801  100.6666 C   0  0  0  0  0  0  0  0  0  0  0  0
   70.0288   -5.8581  101.0715 C   0  0  0  0  0  0  0  0  0  0  0  0
   69.2178   -4.5944   99.3092 C   0  0  0  0  0  0  0  0  0  0  0  0
   69.6471   -3.6004   98.4313 O   0  0  0  0  0  0  0  0  0  0  0  0
   71.1357   -6.2743  101.9236 O   0  0  0  0  0  0  0  0  0  0  0  0
  1  2  2  0
  2  3  1  0
  2  4  1  0
  4  5  1  0
  4  6  1  1
  5  7  1  0
  5  8  1  6
  3  9  1  0
  7  9  1  0
  6 10  1  0
 10 11  1  0
  8 12  1  0
 13 11  1  1
 13 14  1  0
  7 15  1  0
 12 15  1  0
 13 16  1  0
 12 17  2  0
 16 18  1  0
 14 19  2  0
 14 20  1  0
 10 21  2  0
 18 22  1  0
 22 23  1  0
 22 24  1  0
 24 25  1  0
 23 26  1  0
M  END
$$$$
85
     RDKit          3D

 26 29  0  0  0  0  0  0  0  0999 V2000
   75.9145    1.2355  104.5227 C   0  0  0  0  0  0  0  0  0  0  0  0
   75.2490    0.9036  103.3715 C   0  0  1  0  0  0  0  0  0  0  0  0
   75.5099    0.4447  105.6013 N   0  0  0  0  0  0  0  0  0  0  0  0
   74.5259   -0.3880  105.3410 C   0  0  0  0  0  0  0  0  0  0  0  0
   74.2206   -0.1091  103.7241 C   0  0  1  0  0  0  0  0  0  0  0  0
   75.1978    1.5186  102.0794 C   0  0  1  0  0  0  0  0  0  0  0  0
   73.2819   -0.3952  102.8612 C   0  0  2  0  0  0  0  0  0  0  0  0
   72.3154   -1.3669  103.1108 N   0  0  0  0  0  0  0  0  0  0  0  0
   76.0595    2.5009  101.7564 N   0  0  0  0  0  0  0  0  0  0  0  0
   75.6082    2.9319  100.4619 C   0  0  0  0  0  0  0  0  0  0  0  0
   74.2601    1.0310  101.1063 N   0  0  0  0  0  0  0  0  0  0  0  0
   73.4183    0.1509  101.5481 N   0  0  0  0  0  0  0  0  0  0  0  0
   76.1631    4.0720   99.9087 O   0  0  0  0  0  0  0  0  0  0  0  0
   74.4750    2.1348  100.0967 C   0  0  0  0  0  0  0  0  0  0  0  0
   71.8701   -1.6378  104.4148 C   0  0  0  0  0  0  0  0  0  0  0  0
   70.7424   -2.5243  104.4894 C   0  0  1  0  0  0  0  0  0  0  0  0
   70.2745   -2.8208  105.6763 O   0  0  0  0  0  0  0  0  0  0  0  0
   71.2389   -1.5797  102.2621 C   0  0  0  0  0  0  0  0  0  0  0  0
   70.2760   -2.1974  102.9876 C   0  0  1  0  0  0  0  0  0  0  0  0
   69.4823   -3.4792  102.7590 C   0  0  0  0  0  0  0  0  0  0  0  0
   70.3782   -4.4546  102.0542 O   0  0  0  0  0  0  0  0  0  0  0  0
   70.4961   -5.0201  100.8585 C   0  0  0  0  0  0  0  0  0  0  0  0
   70.1241   -6.1475  100.6769 O   0  0  0  0  0  0  0  0  0  0  0  0
   70.5604   -3.8579   99.8309 C   0  0  0  0  0  0  0  0  0  0  0  0
   68.2762   -3.8770  102.6939 O   0  0  0  0  0  0  0  0  0  0  0  0
   68.6496   -1.5883  103.0393 C   0  0  0  0  0  0  0  0  0  0  0  0
  2  1  1  1
  1  3  1  0
  3  4  1  0
  2  5  1  0
  5  4  1  1
  2  6  1  0
  5  7  1  0
  7  8  1  6
  6  9  1  6
  9 10  1  0
  6 11  1  0
  7 12  1  0
 11 12  1  0
 10 13  2  0
 10 14  1  0
 11 14  1  0
  8 15  1  0
 15 16  1  0
 16 17  1  1
  8 18  1  0
 16 19  1  0
 18 19  1  0
 19 20  1  0
 20 21  1  0
 21 22  1  0
 22 23  2  0
 22 24  1  0
 20 25  2  0
 19 26  1  1
M  END
$$$$
86
     RDKit          3D

 26 29  0  0  0  0  0  0  0  0999 V2000
   74.8931   -0.5078  105.5960 N   0  0  0  0  0  0  0  0  0  0  0  0
   73.7145   -0.8723  105.1113 C   0  0  1  0  0  0  0  0  0  0  0  0
   75.6633    0.2754  104.7263 C   0  0  0  0  0  0  0  0  0  0  0  0
   74.9368    0.5667  103.5140 C   0  0  0  0  0  0  0  0  0  0  0  0
   72.8150   -1.5756  105.8151 N   0  0  0  0  0  0  0  0  0  0  0  0
   71.6070   -1.8685  105.2039 C   0  0  2  0  0  0  0  0  0  0  0  0
   73.6069   -0.1169  103.6694 C   0  0  1  0  0  0  0  0  0  0  0  0
   75.3560    1.3635  102.3807 C   0  0  0  0  0  0  0  0  0  0  0  0
   72.5496   -0.2545  102.7584 N   0  0  0  0  0  0  0  0  0  0  0  0
   70.7304   -2.5396  105.8985 N   0  0  0  0  0  0  0  0  0  0  0  0
   71.2851   -1.9287  103.7253 C   0  0  2  0  0  0  0  0  0  0  0  0
   71.6728   -1.1130  102.7979 C   0  0  0  0  0  0  0  0  0  0  0  0
   70.2968   -3.0495  103.5352 C   0  0  1  0  0  0  0  0  0  0  0  0
   76.0715    0.7972  101.4920 O   0  0  0  0  0  0  0  0  0  0  0  0
   74.5933    2.4037  101.8369 C   0  0  0  0  0  0  0  0  0  0  0  0
   74.8252    2.6378  100.3836 N   0  0  0  0  0  0  0  0  0  0  0  0
   69.8344   -3.4117  104.9184 C   0  0  0  0  0  0  0  0  0  0  0  0
   75.7895    3.5755   99.9800 O   0  0  0  0  0  0  0  0  0  0  0  0
   69.7921   -3.3278  102.3160 C   0  0  2  0  0  0  0  0  0  0  0  0
   68.9282   -4.5316  102.2217 C   0  0  0  0  0  0  0  0  0  0  0  0
   68.7139   -4.9878  100.9399 O   0  0  0  0  0  0  0  0  0  0  0  0
   69.5374   -5.8947  100.3711 C   0  0  0  0  0  0  0  0  0  0  0  0
   70.7915   -5.2438  100.1261 C   0  0  1  0  0  0  0  0  0  0  0  0
   71.0848   -3.4985  101.4920 O   0  0  0  0  0  0  0  0  0  0  0  0
   71.1809   -3.9434  100.3876 C   0  0  0  0  0  0  0  0  0  0  0  0
   71.7577   -6.1117  100.8316 O   0  0  0  0  0  0  0  0  0  0  0  0
  2  1  1  1
  1  3  1  0
  3  4  1  0
  2  5  1  0
  6  5  1  6
  2  7  1  0
  4  7  1  0
  4  8  1  0
  7  9  1  6
  6 10  1  0
  6 11  1  0
  9 12  1  0
 11 12  1  1
 11 13  1  0
  8 14  2  0
  8 15  1  0
 15 16  1  0
 10 17  1  0
 13 17  1  1
 16 18  1  0
 13 19  1  0
 19 20  1  1
 20 21  1  0
 21 22  1  0
 22 23  1  0
 19 24  1  0
 23 25  1  0
 24 25  1  0
 23 26  1  1
M  END
$$$$
87
     RDKit          3D

 26 29  0  0  0  0  0  0  0  0999 V2000
   75.3467    3.1685  100.1504 O   0  0  0  0  0  0  0  0  0  0  0  0
   74.7255    2.3321  100.8492 C   0  0  0  0  0  0  0  0  0  0  0  0
   73.6068    2.0873  100.7285 N   0  0  0  0  0  0  0  0  0  0  0  0
   75.4388    1.7527  102.0449 N   0  0  0  0  0  0  0  0  0  0  0  0
   74.8082    0.8345  102.9013 C   0  0  1  0  0  0  0  0  0  0  0  0
   75.2160    0.8273  104.0993 C   0  0  0  0  0  0  0  0  0  0  0  0
   73.4519    0.4337  102.6914 O   0  0  0  0  0  0  0  0  0  0  0  0
   73.3687   -0.4327  103.8477 C   0  0  2  0  0  0  0  0  0  0  0  0
   72.1954   -1.2252  104.0429 C   0  0  2  0  0  0  0  0  0  0  0  0
   74.3825   -0.2165  104.7413 C   0  0  0  0  0  0  0  0  0  0  0  0
   71.8840   -1.8459  105.1981 O   0  0  0  0  0  0  0  0  0  0  0  0
   71.5405   -1.9530  102.9586 O   0  0  0  0  0  0  0  0  0  0  0  0
   70.4852   -2.7030  102.9526 C   0  0  1  0  0  0  0  0  0  0  0  0
   70.6562   -2.6042  105.1860 C   0  0  0  0  0  0  0  0  0  0  0  0
   70.1564   -3.1375  101.5941 C   0  0  1  0  0  0  0  0  0  0  0  0
   70.6460   -3.2548  106.3468 O   0  0  0  0  0  0  0  0  0  0  0  0
   70.0113   -3.2043  104.1274 C   0  0  1  0  0  0  0  0  0  0  0  0
   68.9483   -4.0371  104.1934 C   0  0  0  0  0  0  0  0  0  0  0  0
   70.6363   -2.8175  100.3494 O   0  0  0  0  0  0  0  0  0  0  0  0
   71.0922   -3.9093   99.3628 C   0  0  0  0  0  0  0  0  0  0  0  0
   71.5731   -4.9824  100.3028 C   0  0  1  0  0  0  0  0  0  0  0  0
   69.5221   -4.4629  101.7074 C   0  0  1  0  0  0  0  0  0  0  0  0
   70.2169   -5.4490  100.8415 C   0  0  0  0  0  0  0  0  0  0  0  0
   72.1348   -5.9896   99.6452 O   0  0  0  0  0  0  0  0  0  0  0  0
   68.6445   -4.7119  102.8700 C   0  0  0  0  0  0  0  0  0  0  0  0
   69.6346   -6.5326  100.7327 O   0  0  0  0  0  0  0  0  0  0  0  0
  1  2  2  0
  2  3  1  0
  2  4  1  0
  5  4  1  1
  5  6  1  0
  5  7  1  0
  7  8  1  0
  8  9  1  0
  6 10  1  0
  8 10  1  1
  9 11  1  1
  9 12  1  0
 13 12  1  1
 11 14  1  0
 13 15  1  0
 14 16  2  0
 13 17  1  0
 14 17  1  0
 17 18  1  1
 15 19  1  6
 19 20  1  0
 20 21  1  0
 15 22  1  0
 21 23  1  0
 22 23  1  0
 21 24  1  6
 18 25  1  0
 22 25  1  1
 23 26  2  0
M  END
$$$$
88
     RDKit          3D

 26 27  0  0  0  0  0  0  0  0999 V2000
   75.1408   -0.4373  105.5723 O   0  0  0  0  0  0  0  0  0  0  0  0
   74.4268   -0.1710  104.4728 C   0  0  0  0  0  0  0  0  0  0  0  0
   74.9656    0.6471  103.4664 C   0  0  0  0  0  0  0  0  0  0  0  0
   73.2047   -0.6897  104.3656 N   0  0  0  0  0  0  0  0  0  0  0  0
   74.1766    0.8726  102.2684 C   0  0  1  0  0  0  0  0  0  0  0  0
   72.5926   -0.5679  103.2527 C   0  0  1  0  0  0  0  0  0  0  0  0
   74.6569    1.6996  101.2532 N   0  0  0  0  0  0  0  0  0  0  0  0
   74.4185    2.8806  100.8425 C   0  0  0  0  0  0  0  0  0  0  0  0
   75.2851    3.5362  100.1276 O   0  0  0  0  0  0  0  0  0  0  0  0
   73.0183    0.1365  102.1620 N   0  0  0  0  0  0  0  0  0  0  0  0
   71.3591   -1.3010  103.0998 N   0  0  0  0  0  0  0  0  0  0  0  0
   70.5751   -1.4770  102.0230 C   0  0  0  0  0  0  0  0  0  0  0  0
   70.7219   -1.7186  104.3088 C   0  0  0  0  0  0  0  0  0  0  0  0
   69.4394   -2.3489  103.9020 C   0  0  1  0  0  0  0  0  0  0  0  0
   69.3909   -2.1577  102.4472 C   0  0  1  0  0  0  0  0  0  0  0  0
   68.5516   -3.0353  104.7916 O   0  0  0  0  0  0  0  0  0  0  0  0
   68.2991   -2.5176  101.5845 C   0  0  2  0  0  0  0  0  0  0  0  0
   68.2730   -3.7982  101.2128 O   0  0  0  0  0  0  0  0  0  0  0  0
   68.4980   -4.1287   99.8105 C   0  0  0  0  0  0  0  0  0  0  0  0
   68.2360   -1.5007  100.5231 O   0  0  0  0  0  0  0  0  0  0  0  0
   67.2275   -1.1114   99.7940 C   0  0  0  0  0  0  0  0  0  0  0  0
   70.0199   -4.2968   99.5311 C   0  0  0  0  0  0  0  0  0  0  0  0
   67.2013    0.3215   99.4915 C   0  0  1  0  0  0  0  0  0  0  0  0
   67.6180    1.2604  100.4721 C   0  0  0  0  0  0  0  0  0  0  0  0
   68.0897    0.7189   98.3611 O   0  0  0  0  0  0  0  0  0  0  0  0
   70.5511   -3.8898   98.4990 O   0  0  0  0  0  0  0  0  0  0  0  0
  1  2  2  0
  2  3  1  0
  2  4  1  0
  3  5  1  0
  4  6  1  0
  5  7  1  6
  7  8  1  0
  8  9  1  0
  5 10  1  0
  6 10  1  0
  6 11  1  6
 11 12  1  0
 11 13  1  0
 13 14  1  0
 15 12  1  1
 14 15  1  0
 14 16  1  6
 15 17  1  0
 17 18  1  6
 18 19  1  0
 17 20  1  0
 20 21  1  0
 19 22  1  0
 21 23  1  0
 23 24  1  1
 23 25  1  0
 22 26  1  0
M  END
$$$$
89
     RDKit          3D

 26 27  0  0  0  0  0  0  0  0999 V2000
   74.5860   -1.2261  105.4439 O   0  0  0  0  0  0  0  0  0  0  0  0
   74.7300   -0.0631  104.7522 C   0  0  0  0  0  0  0  0  0  0  0  0
   75.6359    0.7654  104.9638 N   0  0  0  0  0  0  0  0  0  0  0  0
   74.0981   -0.1288  103.3927 C   0  0  2  0  0  0  0  0  0  0  0  0
   74.4728    0.9237  102.5115 C   0  0  1  0  0  0  0  0  0  0  0  0
   73.0095   -0.9625  103.1033 N   0  0  0  0  0  0  0  0  0  0  0  0
   75.4568    1.8602  102.8625 N   0  0  0  0  0  0  0  0  0  0  0  0
   73.9900    1.0739  101.1034 N   0  0  0  0  0  0  0  0  0  0  0  0
   76.0599    1.6014  104.0965 C   0  0  0  0  0  0  0  0  0  0  0  0
   72.0960   -1.3138  104.0251 C   0  0  0  0  0  0  0  0  0  0  0  0
   71.0583   -2.1592  103.7245 C   0  0  0  0  0  0  0  0  0  0  0  0
   74.4490    2.2185  100.6066 C   0  0  0  0  0  0  0  0  0  0  0  0
   69.9873   -1.6765  102.9114 C   0  0  2  0  0  0  0  0  0  0  0  0
   68.4856   -1.8140  103.4867 C   0  0  0  0  0  0  0  0  0  0  0  0
   75.4956    2.7934  101.5084 N   0  0  0  0  0  0  0  0  0  0  0  0
   69.9208   -2.3808  101.5181 C   0  0  0  0  0  0  0  0  0  0  0  0
   74.3940    3.0709   99.5592 O   0  0  0  0  0  0  0  0  0  0  0  0
   69.5821   -3.6305  101.5912 O   0  0  0  0  0  0  0  0  0  0  0  0
   67.7340   -1.2247  102.9437 O   0  0  0  0  0  0  0  0  0  0  0  0
   68.4260   -2.3235  104.5950 O   0  0  0  0  0  0  0  0  0  0  0  0
   71.8887   -0.8863  105.2136 O   0  0  0  0  0  0  0  0  0  0  0  0
   70.0448   -4.6801  100.6666 C   0  0  0  0  0  0  0  0  0  0  0  0
   70.0288   -5.8581  101.0715 C   0  0  0  0  0  0  0  0  0  0  0  0
   69.2178   -4.5944   99.3092 C   0  0  0  0  0  0  0  0  0  0  0  0
   71.5861   -4.1182  100.3670 C   0  0  0  0  0  0  0  0  0  0  0  0
   70.8084   -6.5021  101.8413 O   0  0  0  0  0  0  0  0  0  0  0  0
  1  2  2  0
  2  3  1  0
  2  4  1  0
  4  5  1  0
  4  6  1  1
  5  7  1  0
  5  8  1  6
  3  9  1  0
  7  9  1  0
  6 10  1  0
 10 11  1  0
  8 12  1  0
 13 11  1  1
 13 14  1  0
  7 15  1  0
 12 15  1  0
 13 16  1  0
 12 17  2  0
 16 18  1  0
 14 19  2  0
 14 20  1  0
 10 21  2  0
 18 22  1  0
 22 23  1  0
 22 24  1  0
 22 25  1  0
 23 26  2  0
M  END
$$$$
9
     RDKit          3D

 11 11  0  0  0  0  0  0  0  0999 V2000
   75.0201   -0.3955  105.0434 N   0  0  0  0  0  0  0  0  0  0  0  0
   75.2722    0.4335  104.1500 C   0  0  1  0  0  0  0  0  0  0  0  0
   76.4505    1.1033  104.0886 N   0  0  0  0  0  0  0  0  0  0  0  0
   73.7543   -0.9835  104.9966 C   0  0  0  0  0  0  0  0  0  0  0  0
   72.9079   -0.7839  103.9149 N   0  0  0  0  0  0  0  0  0  0  0  0
   74.4230    0.5587  102.9795 C   0  0  1  0  0  0  0  0  0  0  0  0
   73.2114   -0.0438  102.9850 C   0  0  0  0  0  0  0  0  0  0  0  0
   74.9146    1.4728  101.8967 C   0  0  0  0  0  0  0  0  0  0  0  0
   76.0781    1.7667  101.6439 O   0  0  0  0  0  0  0  0  0  0  0  0
   74.1259    2.1916  101.1416 N   0  0  0  0  0  0  0  0  0  0  0  0
   74.5153    3.0956  100.1638 C   0  0  0  0  0  0  0  0  0  0  0  0
  1  2  1  0
  2  3  1  6
  1  4  1  0
  4  5  1  0
  2  6  1  0
  5  7  1  0
  6  7  1  0
  6  8  1  1
  8  9  2  0
  8 10  1  0
 10 11  1  0
M  END
$$$$
90
     RDKit          3D

 27 29  0  0  0  0  0  0  0  0999 V2000
   75.7609    3.4006   99.4945 O   0  0  0  0  0  0  0  0  0  0  0  0
   75.1057    2.7142  100.4916 C   0  0  0  0  0  0  0  0  0  0  0  0
   75.7554    1.8943  101.3228 N   0  0  0  0  0  0  0  0  0  0  0  0
   75.0034    1.1674  102.2623 C   0  0  2  0  0  0  0  0  0  0  0  0
   73.7421    2.9148  100.6351 O   0  0  0  0  0  0  0  0  0  0  0  0
   75.6333    0.3463  103.1836 C   0  0  1  0  0  0  0  0  0  0  0  0
   73.6064    0.9442  102.1641 O   0  0  0  0  0  0  0  0  0  0  0  0
   73.2834   -0.1826  102.9575 C   0  0  2  0  0  0  0  0  0  0  0  0
   72.1694   -0.5663  103.2396 C   0  0  2  0  0  0  0  0  0  0  0  0
   72.0240   -1.5115  104.3760 C   0  0  0  0  0  0  0  0  0  0  0  0
   71.2712   -1.2773  102.3769 O   0  0  0  0  0  0  0  0  0  0  0  0
   76.7545    0.6835  103.8963 O   0  0  0  0  0  0  0  0  0  0  0  0
   70.9835   -2.3585  104.4549 C   0  0  1  0  0  0  0  0  0  0  0  0
   72.7735   -1.3250  105.6120 O   0  0  0  0  0  0  0  0  0  0  0  0
   74.5083   -0.5361  103.7277 O   0  0  0  0  0  0  0  0  0  0  0  0
   70.4531   -2.3077  103.0216 C   0  0  2  0  0  0  0  0  0  0  0  0
   71.2081   -3.8486  104.5569 O   0  0  0  0  0  0  0  0  0  0  0  0
   70.4571   -3.5868  102.4818 C   0  0  1  0  0  0  0  0  0  0  0  0
   70.5051   -4.5091  103.5847 C   0  0  0  0  0  0  0  0  0  0  0  0
   69.3651   -3.8654  101.4862 O   0  0  0  0  0  0  0  0  0  0  0  0
   69.5206   -4.7034  100.4020 C   0  0  0  0  0  0  0  0  0  0  0  0
   70.9761   -4.7427  100.1241 C   0  0  0  0  0  0  0  0  0  0  0  0
   68.5723   -5.0850   99.7448 O   0  0  0  0  0  0  0  0  0  0  0  0
   71.5855   -3.7071   99.2585 C   0  0  0  0  0  0  0  0  0  0  0  0
   72.9707   -3.5175   99.4603 C   0  0  0  0  0  0  0  0  0  0  0  0
   73.9203   -3.3920   98.7306 O   0  0  0  0  0  0  0  0  0  0  0  0
   73.2107   -3.4744  100.8279 O   0  0  0  0  0  0  0  0  0  0  0  0
  1  2  2  0
  2  3  1  0
  4  3  1  6
  2  5  1  0
  4  6  1  0
  4  7  1  0
  8  7  1  1
  8  9  1  0
  9 10  1  0
  9 11  1  6
  6 12  1  1
 10 13  1  0
 10 14  2  0
  6 15  1  0
  8 15  1  0
 16 11  1  6
 13 16  1  0
 13 17  1  6
 16 18  1  0
 17 19  1  0
 18 19  1  0
 18 20  1  1
 20 21  1  0
 21 22  1  0
 21 23  2  0
 22 24  1  0
 24 25  1  0
 25 26  2  0
 25 27  1  0
M  END
$$$$
91
     RDKit          3D

 27 30  0  0  0  0  0  0  0  0999 V2000
   74.7873    2.9106  100.1427 C   0  0  0  0  0  0  0  0  0  0  0  0
   75.5325    2.7443  101.0909 N   0  0  0  0  0  0  0  0  0  0  0  0
   75.0122    3.5195   99.1627 O   0  0  0  0  0  0  0  0  0  0  0  0
   75.1825    1.8494  102.2075 C   0  0  2  0  0  0  0  0  0  0  0  0
   75.9442    1.4789  103.2617 N   0  0  0  0  0  0  0  0  0  0  0  0
   73.9467    1.0700  102.1098 N   0  0  0  0  0  0  0  0  0  0  0  0
   73.7324    0.2467  103.1964 C   0  0  0  0  0  0  0  0  0  0  0  0
   72.6390   -0.5058  103.3300 N   0  0  0  0  0  0  0  0  0  0  0  0
   75.3818    0.5583  104.1268 C   0  0  0  0  0  0  0  0  0  0  0  0
   74.4669   -0.0010  104.1998 C   0  0  0  0  0  0  0  0  0  0  0  0
   73.6687   -0.9161  104.8785 N   0  0  0  0  0  0  0  0  0  0  0  0
   72.6041   -1.1342  104.4267 C   0  0  0  0  0  0  0  0  0  0  0  0
   73.3552    2.4028  100.3035 C   0  0  0  0  0  0  0  0  0  0  0  0
   71.5641   -1.9582  104.9748 C   0  0  2  0  0  0  0  0  0  0  0  0
   70.5674   -2.3514  104.0539 C   0  0  2  0  0  0  0  0  0  0  0  0
   69.4771   -2.9820  104.5673 O   0  0  0  0  0  0  0  0  0  0  0  0
   73.3606    1.2204  101.1520 C   0  0  0  0  0  0  0  0  0  0  0  0
   71.1477   -3.5187  103.1545 O   0  0  0  0  0  0  0  0  0  0  0  0
   71.0497   -1.1685  106.0448 O   0  0  0  0  0  0  0  0  0  0  0  0
   70.2556   -4.4684  102.6000 C   0  0  2  0  0  0  0  0  0  0  0  0
   70.7873   -5.3668  101.7321 C   0  0  0  0  0  0  0  0  0  0  0  0
   69.0624   -3.6019  101.8935 C   0  0  1  0  0  0  0  0  0  0  0  0
   69.6977   -2.6443  101.0221 O   0  0  0  0  0  0  0  0  0  0  0  0
   68.3600   -4.5305  101.0694 O   0  0  0  0  0  0  0  0  0  0  0  0
   69.1198   -5.4570  100.4111 C   0  0  0  0  0  0  0  0  0  0  0  0
   68.4355   -6.0044   99.3582 O   0  0  0  0  0  0  0  0  0  0  0  0
   70.1534   -6.0244  100.8439 O   0  0  0  0  0  0  0  0  0  0  0  0
  1  2  1  0
  1  3  2  0
  4  2  1  6
  4  5  1  0
  4  6  1  0
  6  7  1  0
  7  8  1  0
  5  9  1  0
  7 10  1  0
  9 10  1  0
 10 11  1  0
  8 12  1  0
 11 12  1  0
  1 13  1  0
 12 14  1  0
 14 15  1  0
 15 16  1  1
  6 17  1  0
 13 17  1  0
 15 18  1  0
 14 19  1  1
 20 18  1  6
 20 21  1  0
 20 22  1  0
 22 23  1  6
 22 24  1  0
 24 25  1  0
 25 26  2  0
 21 27  1  0
 25 27  1  0
M  END
$$$$
92
     RDKit          3D

 27 32  0  0  0  0  0  0  0  0999 V2000
   67.3332    1.1660  101.7163 C   0  0  0  0  0  0  0  0  0  0  0  0
   67.4945   -0.0906  101.9822 N   0  0  0  0  0  0  0  0  0  0  0  0
   67.3919    1.4571  100.3166 N   0  0  0  0  0  0  0  0  0  0  0  0
   67.9389   -0.9725  101.1417 C   0  0  0  0  0  0  0  0  0  0  0  0
   68.0379   -0.5147   99.7960 C   0  0  2  0  0  0  0  0  0  0  0  0
   67.7315    0.6635   99.4007 C   0  0  1  0  0  0  0  0  0  0  0  0
   68.3425   -2.2993  101.2906 N   0  0  0  0  0  0  0  0  0  0  0  0
   68.6124   -2.8529  102.6075 C   0  0  2  0  0  0  0  0  0  0  0  0
   68.3348   -3.1676  100.2556 C   0  0  0  0  0  0  0  0  0  0  0  0
   68.9917   -2.0922  103.6388 O   0  0  0  0  0  0  0  0  0  0  0  0
   69.4734   -2.7323  104.7723 C   0  0  1  0  0  0  0  0  0  0  0  0
   68.7816   -4.4255  100.2952 O   0  0  0  0  0  0  0  0  0  0  0  0
   69.9144   -3.9878  104.1807 C   0  0  1  0  0  0  0  0  0  0  0  0
   67.6898    1.0490   98.1121 N   0  0  0  0  0  0  0  0  0  0  0  0
   69.7964   -3.8436  102.6445 C   0  0  2  0  0  0  0  0  0  0  0  0
   68.1428   -1.5632   98.7324 C   0  0  1  0  0  0  0  0  0  0  0  0
   68.3854   -2.8095   98.9338 N   0  0  0  0  0  0  0  0  0  0  0  0
   71.3455   -4.2761  104.4412 O   0  0  0  0  0  0  0  0  0  0  0  0
   67.4957   -1.1151   97.6867 N   0  0  0  0  0  0  0  0  0  0  0  0
   70.9388   -3.2251  102.0544 O   0  0  0  0  0  0  0  0  0  0  0  0
   67.4025    0.1165   97.2300 C   0  0  0  0  0  0  0  0  0  0  0  0
   70.5749   -2.0046  105.3449 C   0  0  1  0  0  0  0  0  0  0  0  0
   71.7398   -2.8961  105.0341 C   0  0  2  0  0  0  0  0  0  0  0  0
   70.7680   -0.8717  104.5463 O   0  0  0  0  0  0  0  0  0  0  0  0
   72.0864   -1.0418  103.8375 C   0  0  0  0  0  0  0  0  0  0  0  0
   72.6790   -2.0051  104.5436 C   0  0  1  0  0  0  0  0  0  0  0  0
   73.4717   -1.0123  105.3355 O   0  0  0  0  0  0  0  0  0  0  0  0
  1  2  1  0
  1  3  1  0
  2  4  1  0
  5  4  1  1
  6  3  1  6
  5  6  1  0
  4  7  1  0
  8  7  1  6
  7  9  1  0
  8 10  1  0
 11 10  1  6
  9 12  2  0
 11 13  1  0
  6 14  1  0
  8 15  1  0
 13 15  1  0
  5 16  1  0
  9 17  1  0
 16 17  1  1
 13 18  1  6
 16 19  1  0
 15 20  1  1
 14 21  1  0
 19 21  1  0
 11 22  1  0
 23 18  1  6
 22 23  1  0
 22 24  1  6
 24 25  1  0
 23 26  1  0
 25 26  1  0
 26 27  1  1
M  END
$$$$
93
     RDKit          3D

 27 30  0  0  0  0  0  0  0  0999 V2000
   74.5860   -1.2261  105.4439 O   0  0  0  0  0  0  0  0  0  0  0  0
   74.7300   -0.0631  104.7522 C   0  0  0  0  0  0  0  0  0  0  0  0
   75.6359    0.7654  104.9638 N   0  0  0  0  0  0  0  0  0  0  0  0
   74.0981   -0.1288  103.3927 C   0  0  2  0  0  0  0  0  0  0  0  0
   74.4728    0.9237  102.5115 C   0  0  1  0  0  0  0  0  0  0  0  0
   73.0095   -0.9625  103.1033 N   0  0  0  0  0  0  0  0  0  0  0  0
   75.4568    1.8602  102.8625 N   0  0  0  0  0  0  0  0  0  0  0  0
   73.9900    1.0739  101.1034 N   0  0  0  0  0  0  0  0  0  0  0  0
   76.0599    1.6014  104.0965 C   0  0  0  0  0  0  0  0  0  0  0  0
   72.0960   -1.3138  104.0251 C   0  0  0  0  0  0  0  0  0  0  0  0
   71.0583   -2.1592  103.7245 C   0  0  2  0  0  0  0  0  0  0  0  0
   74.4490    2.2185  100.6066 C   0  0  0  0  0  0  0  0  0  0  0  0
   69.9873   -1.6765  102.9114 C   0  0  2  0  0  0  0  0  0  0  0  0
   68.4856   -1.8140  103.4867 C   0  0  1  0  0  0  0  0  0  0  0  0
   75.4956    2.7934  101.5084 N   0  0  0  0  0  0  0  0  0  0  0  0
   70.0925   -1.2655  101.6401 O   0  0  0  0  0  0  0  0  0  0  0  0
   69.1176   -1.4809  100.7719 C   0  0  1  0  0  0  0  0  0  0  0  0
   70.6841   -2.8062  105.0561 O   0  0  0  0  0  0  0  0  0  0  0  0
   68.4334   -2.2750  104.6408 O   0  0  0  0  0  0  0  0  0  0  0  0
   69.4158   -3.4186  105.0428 C   0  0  0  0  0  0  0  0  0  0  0  0
   74.3448    3.0424   99.5414 O   0  0  0  0  0  0  0  0  0  0  0  0
   68.7805   -2.7691  100.4873 C   0  0  0  0  0  0  0  0  0  0  0  0
   67.8442   -3.0472   99.4999 O   0  0  0  0  0  0  0  0  0  0  0  0
   67.7137   -0.7656  101.2617 C   0  0  2  0  0  0  0  0  0  0  0  0
   67.4281    0.4973  100.6605 C   0  0  0  0  0  0  0  0  0  0  0  0
   67.5656   -1.2087  102.6949 O   0  0  0  0  0  0  0  0  0  0  0  0
   67.4983    1.5555  101.5517 O   0  0  0  0  0  0  0  0  0  0  0  0
  1  2  2  0
  2  3  1  0
  2  4  1  0
  4  5  1  0
  4  6  1  1
  5  7  1  0
  5  8  1  6
  3  9  1  0
  7  9  1  0
  6 10  1  0
 11 10  1  1
  8 12  1  0
 11 13  1  0
 13 14  1  0
  7 15  1  0
 12 15  1  0
 13 16  1  6
 16 17  1  0
 11 18  1  0
 14 19  1  1
 18 20  1  0
 19 20  1  0
 12 21  2  0
 17 22  1  1
 22 23  1  0
 17 24  1  0
 24 25  1  1
 14 26  1  0
 24 26  1  0
 25 27  1  0
M  END
$$$$
94
     RDKit          3D

 27 32  0  0  0  0  0  0  0  0999 V2000
   75.3139    3.1783   99.8970 O   0  0  0  0  0  0  0  0  0  0  0  0
   74.7641    2.3981  100.7566 C   0  0  0  0  0  0  0  0  0  0  0  0
   75.3969    2.1909  101.9377 N   0  0  0  0  0  0  0  0  0  0  0  0
   74.9249    1.0973  102.6768 C   0  0  2  0  0  0  0  0  0  0  0  0
   73.5050    1.9588  100.5243 C   0  0  1  0  0  0  0  0  0  0  0  0
   72.9732    2.2385   99.2735 C   0  0  0  0  0  0  0  0  0  0  0  0
   71.7816    1.5639   99.2754 C   0  0  0  0  0  0  0  0  0  0  0  0
   73.6718    0.5908  102.4205 C   0  0  0  0  0  0  0  0  0  0  0  0
   71.0800    1.2970  100.2836 C   0  0  2  0  0  0  0  0  0  0  0  0
   73.1278   -0.3639  103.3582 C   0  0  1  0  0  0  0  0  0  0  0  0
   73.8188   -0.4664  104.6258 C   0  0  0  0  0  0  0  0  0  0  0  0
   73.0446    1.0244  101.3174 C   0  0  2  0  0  0  0  0  0  0  0  0
   75.6797    0.8199  103.8900 C   0  0  0  0  0  0  0  0  0  0  0  0
   71.8127   -1.0709  103.3137 C   0  0  0  0  0  0  0  0  0  0  0  0
   75.1219   -0.0520  104.7943 C   0  0  0  0  0  0  0  0  0  0  0  0
   71.1361   -1.0530  102.1992 C   0  0  0  0  0  0  0  0  0  0  0  0
   71.2328   -0.1007  101.1969 C   0  0  2  0  0  0  0  0  0  0  0  0
   72.4917    0.4494  101.0239 C   0  0  0  0  0  0  0  0  0  0  0  0
   69.9751   -2.0669  102.0006 C   0  0  2  0  0  0  0  0  0  0  0  0
   69.9667   -0.7544  100.5946 C   0  0  1  0  0  0  0  0  0  0  0  0
   69.2171   -1.8039  101.0072 C   0  0  0  0  0  0  0  0  0  0  0  0
   69.7624   -3.1359  103.0677 C   0  0  0  0  0  0  0  0  0  0  0  0
   69.5682    0.8138  100.1012 C   0  0  1  0  0  0  0  0  0  0  0  0
   69.3715   -4.2232  102.6929 O   0  0  0  0  0  0  0  0  0  0  0  0
   68.4311    1.2163  100.7125 C   0  0  0  0  0  0  0  0  0  0  0  0
   70.1037   -2.9805  104.2773 O   0  0  0  0  0  0  0  0  0  0  0  0
   67.1803    1.1831  100.0350 C   0  0  0  0  0  0  0  0  0  0  0  0
  1  2  2  0
  2  3  1  0
  3  4  1  0
  2  5  1  0
  5  6  1  6
  6  7  1  0
  4  8  1  0
  9  7  1  6
  8 10  1  0
 10 11  1  1
  5 12  1  0
  8 12  1  0
  4 13  1  1
 10 14  1  0
 11 15  1  0
 13 15  1  0
 14 16  2  0
  9 17  1  0
 16 17  1  0
 12 18  1  6
 17 18  1  6
 16 19  1  0
 17 20  1  0
 19 21  1  0
 20 21  1  1
 19 22  1  1
  9 23  1  0
 20 23  1  0
 22 24  2  0
 23 25  1  1
 22 26  1  0
 25 27  1  0
M  END
$$$$
95
     RDKit          3D

 27 29  0  0  0  0  0  0  0  0999 V2000
   75.4341    3.4210   99.6461 O   0  0  0  0  0  0  0  0  0  0  0  0
   75.0294    2.6338  100.6869 C   0  0  0  0  0  0  0  0  0  0  0  0
   75.7273    1.6225  101.1897 N   0  0  0  0  0  0  0  0  0  0  0  0
   75.2724    0.7860  102.1865 C   0  0  2  0  0  0  0  0  0  0  0  0
   73.6272    2.6155  101.0179 O   0  0  0  0  0  0  0  0  0  0  0  0
   74.2750   -0.1281  102.0511 C   0  0  0  0  0  0  0  0  0  0  0  0
   73.6733   -0.8107  103.0807 C   0  0  1  0  0  0  0  0  0  0  0  0
   73.9031   -0.3681  104.1593 C   0  0  2  0  0  0  0  0  0  0  0  0
   75.2924    1.1368  103.6469 C   0  0  0  0  0  0  0  0  0  0  0  0
   74.7695    0.5259  104.6279 C   0  0  0  0  0  0  0  0  0  0  0  0
   72.4786   -1.7170  102.7580 C   0  0  0  0  0  0  0  0  0  0  0  0
   73.0820   -1.0981  105.4134 N   0  0  0  0  0  0  0  0  0  0  0  0
   71.7443   -2.1653  103.8491 N   0  0  0  0  0  0  0  0  0  0  0  0
   72.1008   -2.0806  101.6151 O   0  0  0  0  0  0  0  0  0  0  0  0
   72.0284   -1.8114  105.1431 C   0  0  0  0  0  0  0  0  0  0  0  0
   70.4458   -2.7894  103.7248 C   0  0  1  0  0  0  0  0  0  0  0  0
   71.0844   -2.2026  105.9358 N   0  0  0  0  0  0  0  0  0  0  0  0
   70.3653   -3.1594  105.3670 C   0  0  2  0  0  0  0  0  0  0  0  0
   70.6124   -4.4133  105.6236 C   0  0  0  0  0  0  0  0  0  0  0  0
   69.2658   -2.1062  103.2175 C   0  0  0  0  0  0  0  0  0  0  0  0
   69.6844   -5.3962  105.2687 O   0  0  0  0  0  0  0  0  0  0  0  0
   68.1970   -2.7134  103.2481 O   0  0  0  0  0  0  0  0  0  0  0  0
   69.4690   -1.1198  102.2970 N   0  0  0  0  0  0  0  0  0  0  0  0
   68.3450   -0.3666  101.6770 C   0  0  0  0  0  0  0  0  0  0  0  0
   68.6281    0.5979  100.6703 C   0  0  0  0  0  0  0  0  0  0  0  0
   67.2027   -0.5859  102.1609 O   0  0  0  0  0  0  0  0  0  0  0  0
   67.7217    1.6827  100.6823 C   0  0  0  0  0  0  0  0  0  0  0  0
  1  2  2  0
  2  3  1  0
  4  3  1  6
  2  5  1  0
  4  6  1  0
  7  6  1  6
  7  8  1  0
  4  9  1  0
  8 10  1  1
  9 10  1  0
  7 11  1  0
  8 12  1  0
 11 13  1  0
 11 14  2  0
 12 15  1  0
 13 15  1  0
 13 16  1  0
 15 17  2  0
 16 18  1  0
 17 18  1  0
 18 19  1  6
 16 20  1  1
 19 21  1  0
 20 22  2  0
 20 23  1  0
 23 24  1  0
 24 25  1  0
 24 26  2  0
 25 27  1  0
M  END
$$$$
96
     RDKit          3D

 28 30  0  0  0  0  0  0  0  0999 V2000
   74.5860   -1.2261  105.4439 O   0  0  0  0  0  0  0  0  0  0  0  0
   74.7300   -0.0631  104.7522 C   0  0  0  0  0  0  0  0  0  0  0  0
   75.6359    0.7654  104.9638 N   0  0  0  0  0  0  0  0  0  0  0  0
   74.0981   -0.1288  103.3927 C   0  0  2  0  0  0  0  0  0  0  0  0
   74.4728    0.9237  102.5115 C   0  0  1  0  0  0  0  0  0  0  0  0
   73.0095   -0.9625  103.1033 N   0  0  0  0  0  0  0  0  0  0  0  0
   75.4568    1.8602  102.8625 N   0  0  0  0  0  0  0  0  0  0  0  0
   73.9900    1.0739  101.1034 N   0  0  0  0  0  0  0  0  0  0  0  0
   76.0599    1.6014  104.0965 C   0  0  0  0  0  0  0  0  0  0  0  0
   72.0960   -1.3138  104.0251 C   0  0  0  0  0  0  0  0  0  0  0  0
   71.0583   -2.1592  103.7245 C   0  0  0  0  0  0  0  0  0  0  0  0
   74.4490    2.2185  100.6066 C   0  0  0  0  0  0  0  0  0  0  0  0
   69.9873   -1.6765  102.9114 C   0  0  2  0  0  0  0  0  0  0  0  0
   68.4856   -1.8140  103.4867 C   0  0  1  0  0  0  0  0  0  0  0  0
   75.4956    2.7934  101.5084 N   0  0  0  0  0  0  0  0  0  0  0  0
   70.0925   -1.2655  101.6401 O   0  0  0  0  0  0  0  0  0  0  0  0
   69.1176   -1.4809  100.7719 C   0  0  2  0  0  0  0  0  0  0  0  0
   72.0160   -0.8707  105.2357 O   0  0  0  0  0  0  0  0  0  0  0  0
   67.8238   -1.2202  101.1025 C   0  0  1  0  0  0  0  0  0  0  0  0
   74.8436    2.9867   99.5863 O   0  0  0  0  0  0  0  0  0  0  0  0
   67.5344   -1.6168  102.5466 O   0  0  0  0  0  0  0  0  0  0  0  0
   68.4474   -2.9846  104.2186 O   0  0  0  0  0  0  0  0  0  0  0  0
   67.2985    0.2596  101.1613 C   0  0  0  0  0  0  0  0  0  0  0  0
   67.7027    1.0464  102.1034 O   0  0  0  0  0  0  0  0  0  0  0  0
   69.0051   -2.7473   99.9938 C   0  0  0  0  0  0  0  0  0  0  0  0
   66.8239    0.6660  100.0978 O   0  0  0  0  0  0  0  0  0  0  0  0
   68.0651   -2.9561   99.0400 O   0  0  0  0  0  0  0  0  0  0  0  0
   70.8918   -3.4318  104.1445 O   0  0  0  0  0  0  0  0  0  0  0  0
  1  2  2  0
  2  3  1  0
  2  4  1  0
  4  5  1  0
  4  6  1  1
  5  7  1  0
  5  8  1  6
  3  9  1  0
  7  9  1  0
  6 10  1  0
 10 11  1  0
  8 12  1  0
 13 11  1  6
 13 14  1  0
  7 15  1  0
 12 15  1  0
 13 16  1  0
 16 17  1  0
 10 18  2  0
 17 19  1  0
 12 20  2  0
 14 21  1  0
 19 21  1  0
 14 22  1  6
 19 23  1  1
 23 24  1  0
 17 25  1  1
 23 26  2  0
 25 27  1  0
 11 28  2  0
M  END
$$$$
97
     RDKit          3D

 28 31  0  0  0  0  0  0  0  0999 V2000
   74.7873    2.9106  100.1427 C   0  0  0  0  0  0  0  0  0  0  0  0
   75.5325    2.7443  101.0909 N   0  0  0  0  0  0  0  0  0  0  0  0
   75.0122    3.5195   99.1627 O   0  0  0  0  0  0  0  0  0  0  0  0
   75.1825    1.8494  102.2075 C   0  0  2  0  0  0  0  0  0  0  0  0
   75.9442    1.4789  103.2617 N   0  0  0  0  0  0  0  0  0  0  0  0
   73.9467    1.0700  102.1098 N   0  0  0  0  0  0  0  0  0  0  0  0
   73.7324    0.2467  103.1964 C   0  0  0  0  0  0  0  0  0  0  0  0
   72.6390   -0.5058  103.3300 N   0  0  0  0  0  0  0  0  0  0  0  0
   75.3818    0.5583  104.1268 C   0  0  0  0  0  0  0  0  0  0  0  0
   74.4669   -0.0010  104.1998 C   0  0  0  0  0  0  0  0  0  0  0  0
   73.6687   -0.9161  104.8785 N   0  0  0  0  0  0  0  0  0  0  0  0
   72.6041   -1.1342  104.4267 C   0  0  0  0  0  0  0  0  0  0  0  0
   73.3552    2.4028  100.3035 C   0  0  0  0  0  0  0  0  0  0  0  0
   71.5641   -1.9582  104.9748 C   0  0  2  0  0  0  0  0  0  0  0  0
   70.5674   -2.3514  104.0539 C   0  0  2  0  0  0  0  0  0  0  0  0
   69.4771   -2.9820  104.5673 O   0  0  0  0  0  0  0  0  0  0  0  0
   73.3606    1.2204  101.1520 C   0  0  0  0  0  0  0  0  0  0  0  0
   71.1477   -3.5187  103.1545 O   0  0  0  0  0  0  0  0  0  0  0  0
   71.0497   -1.1685  106.0448 O   0  0  0  0  0  0  0  0  0  0  0  0
   70.2556   -4.4684  102.6000 C   0  0  2  0  0  0  0  0  0  0  0  0
   70.7873   -5.3668  101.7321 C   0  0  0  0  0  0  0  0  0  0  0  0
   69.0624   -3.6019  101.8935 C   0  0  1  0  0  0  0  0  0  0  0  0
   69.6977   -2.6443  101.0221 O   0  0  0  0  0  0  0  0  0  0  0  0
   68.3600   -4.5305  101.0694 O   0  0  0  0  0  0  0  0  0  0  0  0
   69.1198   -5.4570  100.4111 C   0  0  0  0  0  0  0  0  0  0  0  0
   68.4355   -6.0044   99.3582 O   0  0  0  0  0  0  0  0  0  0  0  0
   70.3104   -5.9414  100.6514 O   0  0  0  0  0  0  0  0  0  0  0  0
   72.0817   -5.7511  101.9144 O   0  0  0  0  0  0  0  0  0  0  0  0
  1  2  1  0
  1  3  2  0
  4  2  1  6
  4  5  1  0
  4  6  1  0
  6  7  1  0
  7  8  1  0
  5  9  1  0
  7 10  1  0
  9 10  1  0
 10 11  1  0
  8 12  1  0
 11 12  1  0
  1 13  1  0
 12 14  1  0
 14 15  1  0
 15 16  1  1
  6 17  1  0
 13 17  1  0
 15 18  1  0
 14 19  1  1
 20 18  1  6
 20 21  1  0
 20 22  1  0
 22 23  1  6
 22 24  1  0
 24 25  1  0
 25 26  2  0
 21 27  1  0
 25 27  1  0
 21 28  2  0
M  END
$$$$
98
     RDKit          3D

 28 31  0  0  0  0  0  0  0  0999 V2000
   75.4341    3.4210   99.6461 O   0  0  0  0  0  0  0  0  0  0  0  0
   75.0294    2.6338  100.6869 C   0  0  0  0  0  0  0  0  0  0  0  0
   75.7273    1.6225  101.1897 N   0  0  0  0  0  0  0  0  0  0  0  0
   75.2724    0.7860  102.1865 C   0  0  2  0  0  0  0  0  0  0  0  0
   73.7028    2.8150  101.1667 O   0  0  0  0  0  0  0  0  0  0  0  0
   74.2681   -0.1396  102.0304 C   0  0  0  0  0  0  0  0  0  0  0  0
   73.8267   -0.5295  100.7671 O   0  0  0  0  0  0  0  0  0  0  0  0
   75.7683    1.2701  103.4854 N   0  0  0  0  0  0  0  0  0  0  0  0
   73.6740   -0.6898  103.1817 N   0  0  0  0  0  0  0  0  0  0  0  0
   72.5993   -1.5321  103.1632 C   0  0  1  0  0  0  0  0  0  0  0  0
   74.2636   -0.3661  104.5022 C   0  0  0  0  0  0  0  0  0  0  0  0
   75.2780    0.5344  104.6181 C   0  0  0  0  0  0  0  0  0  0  0  0
   73.7729   -1.0074  105.6079 N   0  0  0  0  0  0  0  0  0  0  0  0
   72.0142   -1.8398  104.4179 C   0  0  0  0  0  0  0  0  0  0  0  0
   72.5820   -1.6400  105.5522 C   0  0  1  0  0  0  0  0  0  0  0  0
   71.4988   -1.3090  102.1687 N   0  0  0  0  0  0  0  0  0  0  0  0
   70.4203   -2.0937  102.5492 C   0  0  1  0  0  0  0  0  0  0  0  0
   70.6747   -2.4047  104.0124 C   0  0  0  0  0  0  0  0  0  0  0  0
   72.0686   -2.1827  106.7063 N   0  0  0  0  0  0  0  0  0  0  0  0
   69.2409   -2.3530  101.8925 C   0  0  2  0  0  0  0  0  0  0  0  0
   68.3359   -1.2679  101.6317 C   0  0  1  0  0  0  0  0  0  0  0  0
   67.9892   -0.3440  102.4897 O   0  0  0  0  0  0  0  0  0  0  0  0
   68.7345   -0.6707  100.2612 C   0  0  2  0  0  0  0  0  0  0  0  0
   68.2092    0.7186  100.1467 C   0  0  0  0  0  0  0  0  0  0  0  0
   67.6633    0.8903  101.7193 C   0  0  0  0  0  0  0  0  0  0  0  0
   67.9607   -1.3619   99.1707 O   0  0  0  0  0  0  0  0  0  0  0  0
   68.2966   -3.3496  102.5666 O   0  0  0  0  0  0  0  0  0  0  0  0
   68.0226    1.4588   99.2076 O   0  0  0  0  0  0  0  0  0  0  0  0
  1  2  2  0
  2  3  1  0
  4  3  1  6
  2  5  1  0
  4  6  1  0
  6  7  2  0
  4  8  1  0
  6  9  1  0
  9 10  1  0
  9 11  1  0
  8 12  1  0
 11 12  1  0
 11 13  1  0
 10 14  1  0
 13 15  1  0
 14 15  1  0
 10 16  1  6
 16 17  1  0
 14 18  1  0
 17 18  1  1
 15 19  1  6
 17 20  1  0
 20 21  1  0
 21 22  1  1
 21 23  1  0
 23 24  1  0
 22 25  1  0
 24 25  1  0
 23 26  1  6
 20 27  1  1
 24 28  2  0
M  END
$$$$
99
     RDKit          3D

 28 31  0  0  0  0  0  0  0  0999 V2000
   74.5860   -1.2261  105.4439 O   0  0  0  0  0  0  0  0  0  0  0  0
   74.7300   -0.0631  104.7522 C   0  0  0  0  0  0  0  0  0  0  0  0
   75.6359    0.7654  104.9638 N   0  0  0  0  0  0  0  0  0  0  0  0
   74.0981   -0.1288  103.3927 C   0  0  2  0  0  0  0  0  0  0  0  0
   74.4728    0.9237  102.5115 C   0  0  1  0  0  0  0  0  0  0  0  0
   73.0095   -0.9625  103.1033 N   0  0  0  0  0  0  0  0  0  0  0  0
   75.4568    1.8602  102.8625 N   0  0  0  0  0  0  0  0  0  0  0  0
   73.9900    1.0739  101.1034 N   0  0  0  0  0  0  0  0  0  0  0  0
   76.0599    1.6014  104.0965 C   0  0  0  0  0  0  0  0  0  0  0  0
   72.0960   -1.3138  104.0251 C   0  0  0  0  0  0  0  0  0  0  0  0
   71.0583   -2.1592  103.7245 C   0  0  2  0  0  0  0  0  0  0  0  0
   74.4490    2.2185  100.6066 C   0  0  0  0  0  0  0  0  0  0  0  0
   69.9873   -1.6765  102.9114 C   0  0  2  0  0  0  0  0  0  0  0  0
   68.4856   -1.8140  103.4867 C   0  0  1  0  0  0  0  0  0  0  0  0
   75.4956    2.7934  101.5084 N   0  0  0  0  0  0  0  0  0  0  0  0
   70.0925   -1.2655  101.6401 O   0  0  0  0  0  0  0  0  0  0  0  0
   69.1176   -1.4809  100.7719 C   0  0  1  0  0  0  0  0  0  0  0  0
   70.6841   -2.8062  105.0561 O   0  0  0  0  0  0  0  0  0  0  0  0
   68.4334   -2.2750  104.6408 O   0  0  0  0  0  0  0  0  0  0  0  0
   69.4158   -3.4186  105.0428 C   0  0  0  0  0  0  0  0  0  0  0  0
   74.3448    3.0424   99.5414 O   0  0  0  0  0  0  0  0  0  0  0  0
   68.7805   -2.7691  100.4873 C   0  0  0  0  0  0  0  0  0  0  0  0
   67.8442   -3.0472   99.4999 O   0  0  0  0  0  0  0  0  0  0  0  0
   67.7137   -0.7656  101.2617 C   0  0  2  0  0  0  0  0  0  0  0  0
   67.4281    0.4973  100.6605 C   0  0  0  0  0  0  0  0  0  0  0  0
   67.5656   -1.2087  102.6949 O   0  0  0  0  0  0  0  0  0  0  0  0
   67.1895    0.6185   99.4173 O   0  0  0  0  0  0  0  0  0  0  0  0
   67.5412    1.5676  101.5018 O   0  0  0  0  0  0  0  0  0  0  0  0
  1  2  2  0
  2  3  1  0
  2  4  1  0
  4  5  1  0
  4  6  1  1
  5  7  1  0
  5  8  1  6
  3  9  1  0
  7  9  1  0
  6 10  1  0
 11 10  1  1
  8 12  1  0
 11 13  1  0
 13 14  1  0
  7 15  1  0
 12 15  1  0
 13 16  1  6
 16 17  1  0
 11 18  1  0
 14 19  1  1
 18 20  1  0
 19 20  1  0
 12 21  2  0
 17 22  1  1
 22 23  1  0
 17 24  1  0
 24 25  1  1
 14 26  1  0
 24 26  1  0
 25 27  1  0
 25 28  2  0
M  END
$$$$
