0
     RDKit          3D

 12 13  0  0  0  0  0  0  0  0999 V2000
   11.8255    2.3086   24.4914 O   0  0  0  0  0  0  0  0  0  0  0  0
   11.1724    3.4106   24.5404 C   0  0  0  0  0  0  0  0  0  0  0  0
   10.4118    3.7105   23.5636 N   0  0  0  0  0  0  0  0  0  0  0  0
   11.5610    4.4598   25.3850 C   0  0  2  0  0  0  0  0  0  0  0  0
   12.4452    4.2849   26.5065 O   0  0  0  0  0  0  0  0  0  0  0  0
   10.9657    5.7443   25.2717 C   0  0  2  0  0  0  0  0  0  0  0  0
   11.4464    6.8372   26.2125 C   0  0  0  0  0  0  0  0  0  0  0  0
    9.7356    4.9225   23.4052 C   0  0  0  0  0  0  0  0  0  0  0  0
   10.0141    5.8494   24.4044 C   0  0  2  0  0  0  0  0  0  0  0  0
    9.1681    7.1775   24.2068 C   0  0  0  0  0  0  0  0  0  0  0  0
   10.6907    8.0203   26.0398 C   0  0  0  0  0  0  0  0  0  0  0  0
    9.7086    8.0516   25.1612 C   0  0  0  0  0  0  0  0  0  0  0  0
  1  2  2  0
  2  3  1  0
  2  4  1  0
  4  5  1  1
  4  6  1  0
  6  7  1  1
  3  8  1  0
  6  9  1  0
  9  8  1  6
  9 10  1  0
  7 11  1  0
 10 12  1  0
 11 12  1  0
M  END
$$$$
1
     RDKit          3D

 13 14  0  0  0  0  0  0  0  0999 V2000
   11.8255    2.3086   24.4914 O   0  0  0  0  0  0  0  0  0  0  0  0
   11.1724    3.4106   24.5404 C   0  0  0  0  0  0  0  0  0  0  0  0
   10.4118    3.7105   23.5636 N   0  0  0  0  0  0  0  0  0  0  0  0
   11.5610    4.4598   25.3850 C   0  0  2  0  0  0  0  0  0  0  0  0
   12.4452    4.2849   26.5065 O   0  0  0  0  0  0  0  0  0  0  0  0
   10.9657    5.7443   25.2717 C   0  0  0  0  0  0  0  0  0  0  0  0
   11.4464    6.8372   26.2125 C   0  0  0  0  0  0  0  0  0  0  0  0
    9.7356    4.9225   23.4052 C   0  0  0  0  0  0  0  0  0  0  0  0
   10.0029    5.9494   24.3947 C   0  0  2  0  0  0  0  0  0  0  0  0
    9.3510    7.2378   24.2208 C   0  0  0  0  0  0  0  0  0  0  0  0
    9.8365    8.2589   25.1704 C   0  0  0  0  0  0  0  0  0  0  0  0
    9.2447    9.5142   24.9904 O   0  0  0  0  0  0  0  0  0  0  0  0
   10.7695    7.9883   26.1710 C   0  0  0  0  0  0  0  0  0  0  0  0
  1  2  2  0
  2  3  1  0
  2  4  1  0
  4  5  1  1
  4  6  1  0
  6  7  1  0
  3  8  1  0
  6  9  1  0
  9  8  1  6
  9 10  1  0
 10 11  1  0
 11 12  1  0
  7 13  1  0
 11 13  1  0
M  END
$$$$
10
     RDKit          3D

 16 18  0  0  0  0  0  0  0  0999 V2000
    9.4190    8.2745   30.7731 C   0  0  0  0  0  0  0  0  0  0  0  0
   10.4078    7.7179   30.0707 O   0  0  0  0  0  0  0  0  0  0  0  0
   10.1025    7.1896   28.9620 C   0  0  1  0  0  0  0  0  0  0  0  0
   11.0205    6.4837   28.0852 C   0  0  1  0  0  0  0  0  0  0  0  0
    8.6773    6.8927   28.7343 C   0  0  0  0  0  0  0  0  0  0  0  0
   12.4067    6.6102   28.2861 O   0  0  0  0  0  0  0  0  0  0  0  0
    8.1019    8.1327   30.4810 C   0  0  0  0  0  0  0  0  0  0  0  0
    7.8489    7.4927   29.4188 C   0  0  0  0  0  0  0  0  0  0  0  0
   10.5885    5.3010   27.5193 C   0  0  1  0  0  0  0  0  0  0  0  0
    9.2228    5.1587   27.0893 C   0  0  2  0  0  0  0  0  0  0  0  0
   11.6074    4.4248   26.8358 O   0  0  0  0  0  0  0  0  0  0  0  0
   11.0817    3.6821   25.8482 C   0  0  0  0  0  0  0  0  0  0  0  0
    8.2714    5.8950   27.7496 C   0  0  0  0  0  0  0  0  0  0  0  0
   11.8394    3.5760   24.7739 O   0  0  0  0  0  0  0  0  0  0  0  0
    9.9301    2.8780   25.9276 C   0  0  0  0  0  0  0  0  0  0  0  0
    8.8943    3.7793   26.5910 C   0  0  0  0  0  0  0  0  0  0  0  0
  1  2  1  0
  3  2  1  1
  3  4  1  0
  3  5  1  0
  4  6  1  1
  1  7  1  0
  5  8  1  0
  7  8  1  0
  4  9  1  0
  9 10  1  0
  9 11  1  6
 11 12  1  0
  5 13  1  0
 10 13  1  1
 12 14  2  0
 12 15  1  0
 10 16  1  0
 15 16  1  0
M  END
$$$$
100
     RDKit          3D

 21 24  0  0  0  0  0  0  0  0999 V2000
    9.3684    8.5221   30.9427 C   0  0  0  0  0  0  0  0  0  0  0  0
    8.1654    8.3991   30.3867 C   0  0  1  0  0  0  0  0  0  0  0  0
    7.0359    8.9538   30.9066 O   0  0  0  0  0  0  0  0  0  0  0  0
    8.1461    7.7897   29.1192 C   0  0  0  0  0  0  0  0  0  0  0  0
    9.2552    7.2617   28.4702 C   0  0  0  0  0  0  0  0  0  0  0  0
   10.4941    7.3714   29.1416 C   0  0  0  0  0  0  0  0  0  0  0  0
    9.4848    9.1405   32.1995 O   0  0  0  0  0  0  0  0  0  0  0  0
   10.4951    8.0281   30.3914 C   0  0  0  0  0  0  0  0  0  0  0  0
    6.5619   10.1214   30.4448 C   0  0  0  0  0  0  0  0  0  0  0  0
   11.6388    6.8478   28.5800 N   0  0  0  0  0  0  0  0  0  0  0  0
    9.3381    6.6018   27.2022 C   0  0  1  0  0  0  0  0  0  0  0  0
    8.0531    6.4782   26.4771 N   0  0  0  0  0  0  0  0  0  0  0  0
   10.4414    6.4775   26.6075 C   0  0  1  0  0  0  0  0  0  0  0  0
    6.8721    6.3515   26.8140 O   0  0  0  0  0  0  0  0  0  0  0  0
    8.2537    6.0744   25.1441 C   0  0  1  0  0  0  0  0  0  0  0  0
   11.6904    6.3628   27.3665 C   0  0  0  0  0  0  0  0  0  0  0  0
    9.4434    5.7894   24.6052 C   0  0  0  0  0  0  0  0  0  0  0  0
   10.5927    5.8862   25.2969 C   0  0  1  0  0  0  0  0  0  0  0  0
   11.8974    5.7840   24.5537 O   0  0  0  0  0  0  0  0  0  0  0  0
    6.9805    5.8427   24.3951 C   0  0  0  0  0  0  0  0  0  0  0  0
    5.9305    5.7515   25.4412 C   0  0  0  0  0  0  0  0  0  0  0  0
  1  2  1  0
  2  3  1  6
  2  4  1  0
  4  5  1  0
  5  6  1  0
  1  7  1  0
  1  8  1  0
  6  8  1  0
  3  9  1  0
  6 10  1  0
 11  5  1  6
 11 12  1  0
 11 13  1  0
 12 14  1  0
 12 15  1  0
 10 16  1  0
 13 16  1  1
 15 17  1  1
 13 18  1  0
 17 18  1  0
 18 19  1  6
 15 20  1  0
 14 21  1  0
 20 21  1  0
M  END
$$$$
101
     RDKit          3D

 21 24  0  0  0  0  0  0  0  0999 V2000
    9.8581    7.9078   30.6039 C   0  0  0  0  0  0  0  0  0  0  0  0
    8.5522    7.8503   30.3030 C   0  0  0  0  0  0  0  0  0  0  0  0
    8.2434    7.1709   29.0410 C   0  0  0  0  0  0  0  0  0  0  0  0
   10.7711    7.3930   29.6283 N   0  0  0  0  0  0  0  0  0  0  0  0
   10.2611    6.7724   28.6571 C   0  0  0  0  0  0  0  0  0  0  0  0
    9.1239    6.7046   28.4054 C   0  0  1  0  0  0  0  0  0  0  0  0
    8.9480    5.7697   27.1250 C   0  0  2  0  0  0  0  0  0  0  0  0
   10.2420    5.4362   26.6422 N   0  0  0  0  0  0  0  0  0  0  0  0
   11.1828    6.0982   27.6653 C   0  0  0  0  0  0  0  0  0  0  0  0
    7.9906    5.4472   26.3292 N   0  0  0  0  0  0  0  0  0  0  0  0
   10.2410    4.7474   25.7071 C   0  0  2  0  0  0  0  0  0  0  0  0
    6.5896    5.5628   26.3844 C   0  0  2  0  0  0  0  0  0  0  0  0
   11.3782    4.2328   24.9379 C   0  0  0  0  0  0  0  0  0  0  0  0
    8.8688    4.5814   25.4300 C   0  0  0  0  0  0  0  0  0  0  0  0
    6.0703    5.6637   25.1414 C   0  0  0  0  0  0  0  0  0  0  0  0
    4.6069    5.7470   25.1250 C   0  0  2  0  0  0  0  0  0  0  0  0
    3.9446    6.2478   24.0257 O   0  0  0  0  0  0  0  0  0  0  0  0
    5.9533    5.9770   27.4020 O   0  0  0  0  0  0  0  0  0  0  0  0
    4.5814    5.9486   26.9099 C   0  0  0  0  0  0  0  0  0  0  0  0
    3.4704    6.0572   27.5945 O   0  0  0  0  0  0  0  0  0  0  0  0
   11.5952    2.9192   24.9263 O   0  0  0  0  0  0  0  0  0  0  0  0
  1  2  1  0
  2  3  1  0
  1  4  1  0
  4  5  1  0
  6  3  1  1
  5  6  1  0
  6  7  1  0
  7  8  1  0
  5  9  1  0
  8  9  1  0
  7 10  1  6
  8 11  1  0
 12 10  1  6
 11 13  1  6
 10 14  1  0
 11 14  1  0
 12 15  1  0
 15 16  1  0
 16 17  1  6
 12 18  1  0
 16 19  1  0
 18 19  1  0
 19 20  2  0
 13 21  1  0
M  END
$$$$
102
     RDKit          3D

 21 23  0  0  0  0  0  0  0  0999 V2000
    9.3684    8.5221   30.9427 C   0  0  0  0  0  0  0  0  0  0  0  0
    8.1654    8.3991   30.3867 C   0  0  1  0  0  0  0  0  0  0  0  0
    7.0359    8.9538   30.9066 O   0  0  0  0  0  0  0  0  0  0  0  0
    8.1461    7.7897   29.1192 C   0  0  2  0  0  0  0  0  0  0  0  0
    6.8523    7.5881   28.4797 O   0  0  0  0  0  0  0  0  0  0  0  0
   10.5502    7.9704   30.3528 C   0  0  0  0  0  0  0  0  0  0  0  0
    6.8248    6.7764   27.3869 C   0  0  1  0  0  0  0  0  0  0  0  0
    9.2203    7.1394   28.6102 C   0  0  2  0  0  0  0  0  0  0  0  0
    7.9121    6.1073   26.9319 C   0  0  1  0  0  0  0  0  0  0  0  0
    5.5010    6.6158   26.7974 C   0  0  0  0  0  0  0  0  0  0  0  0
    7.7039    5.3249   25.7248 C   0  0  2  0  0  0  0  0  0  0  0  0
    9.1743    6.2886   27.5802 O   0  0  0  0  0  0  0  0  0  0  0  0
   10.3862    7.1618   29.2267 C   0  0  0  0  0  0  0  0  0  0  0  0
    5.3615    5.8241   25.7168 C   0  0  0  0  0  0  0  0  0  0  0  0
    6.4847    5.1499   25.1773 C   0  0  0  0  0  0  0  0  0  0  0  0
    8.8382    4.6062   25.0835 C   0  0  0  0  0  0  0  0  0  0  0  0
    3.8708    5.6462   25.0611 Cl  0  0  0  0  0  0  0  0  0  0  0  0
    9.5630    3.6032   25.7251 C   0  0  0  0  0  0  0  0  0  0  0  0
   10.8869    3.9421   26.1491 C   0  0  1  0  0  0  0  0  0  0  0  0
   11.2223    4.0326   27.5180 O   0  0  0  0  0  0  0  0  0  0  0  0
   11.9706    3.0036   25.6946 C   0  0  0  0  0  0  0  0  0  0  0  0
  1  2  1  0
  2  3  1  6
  2  4  1  0
  4  5  1  1
  1  6  1  0
  5  7  1  0
  4  8  1  0
  7  9  1  0
  7 10  1  1
  9 11  1  0
  8 12  1  0
  9 12  1  6
  6 13  1  0
  8 13  1  1
 10 14  1  0
 11 15  1  0
 14 15  1  0
 11 16  1  1
 14 17  1  0
 16 18  1  0
 18 19  1  0
 19 20  1  0
 19 21  1  6
M  END
$$$$
11
     RDKit          3D

 17 18  0  0  0  0  0  0  0  0999 V2000
    8.2629    8.0336   30.6915 C   0  0  0  0  0  0  0  0  0  0  0  0
    7.5529    7.2014   30.0107 C   0  0  0  0  0  0  0  0  0  0  0  0
    8.0893    6.3389   28.9556 C   0  0  0  0  0  0  0  0  0  0  0  0
    9.3082    6.6168   28.7896 C   0  0  0  0  0  0  0  0  0  0  0  0
    9.6385    8.1990   30.4173 C   0  0  0  0  0  0  0  0  0  0  0  0
   10.0336    7.3928   29.3587 C   0  0  0  0  0  0  0  0  0  0  0  0
    9.9621    5.6731   27.5423 C   0  0  0  0  0  0  0  0  0  0  0  0
   10.2220    4.4365   27.7944 C   0  0  1  0  0  0  0  0  0  0  0  0
   10.1832    6.3541   26.3539 C   0  0  0  0  0  0  0  0  0  0  0  0
   10.6570    5.4995   25.2748 C   0  0  0  0  0  0  0  0  0  0  0  0
   10.8785    6.1699   24.0007 C   0  0  0  0  0  0  0  0  0  0  0  0
   10.7581    5.4869   22.9327 O   0  0  0  0  0  0  0  0  0  0  0  0
   10.8123    4.1284   25.5090 C   0  0  1  0  0  0  0  0  0  0  0  0
   11.3308    7.3624   24.0166 O   0  0  0  0  0  0  0  0  0  0  0  0
   10.0615    3.7006   29.0490 F   0  0  0  0  0  0  0  0  0  0  0  0
   10.5591    3.5813   26.6993 C   0  0  0  0  0  0  0  0  0  0  0  0
   11.2530    3.2061   24.1494 C   0  0  0  0  0  0  0  0  0  0  0  0
  1  2  1  0
  2  3  1  0
  3  4  1  0
  1  5  1  0
  4  6  1  0
  5  6  1  0
  4  7  1  0
  7  8  1  0
  7  9  1  0
  9 10  1  0
 10 11  1  0
 11 12  2  0
 10 13  1  0
 11 14  1  0
  8 15  1  6
  8 16  1  0
 13 16  1  0
 13 17  1  6
M  END
$$$$
12
     RDKit          3D

 17 19  0  0  0  0  0  0  0  0999 V2000
    9.4190    8.2745   30.7731 C   0  0  0  0  0  0  0  0  0  0  0  0
   10.4078    7.7179   30.0707 O   0  0  0  0  0  0  0  0  0  0  0  0
   10.1025    7.1896   28.9620 C   0  0  1  0  0  0  0  0  0  0  0  0
   11.0205    6.4837   28.0852 C   0  0  1  0  0  0  0  0  0  0  0  0
    8.6773    6.8927   28.7343 C   0  0  0  0  0  0  0  0  0  0  0  0
   12.4067    6.6102   28.2861 O   0  0  0  0  0  0  0  0  0  0  0  0
    8.1019    8.1327   30.4810 C   0  0  0  0  0  0  0  0  0  0  0  0
    7.8489    7.4927   29.4188 C   0  0  0  0  0  0  0  0  0  0  0  0
   10.5885    5.3010   27.5193 C   0  0  1  0  0  0  0  0  0  0  0  0
    9.2228    5.1587   27.0893 C   0  0  2  0  0  0  0  0  0  0  0  0
   11.6074    4.4248   26.8358 O   0  0  0  0  0  0  0  0  0  0  0  0
   11.0817    3.6821   25.8482 C   0  0  0  0  0  0  0  0  0  0  0  0
    8.2714    5.8950   27.7496 C   0  0  0  0  0  0  0  0  0  0  0  0
   11.8394    3.5760   24.7739 O   0  0  0  0  0  0  0  0  0  0  0  0
    8.8277    4.0972   26.1797 C   0  0  1  0  0  0  0  0  0  0  0  0
    7.4741    3.9055   26.0198 O   0  0  0  0  0  0  0  0  0  0  0  0
    9.7912    3.5194   25.3135 C   0  0  0  0  0  0  0  0  0  0  0  0
  1  2  1  0
  3  2  1  1
  3  4  1  0
  3  5  1  0
  4  6  1  1
  1  7  1  0
  5  8  1  0
  7  8  1  0
  4  9  1  0
  9 10  1  0
  9 11  1  6
 11 12  1  0
  5 13  1  0
 10 13  1  1
 12 14  2  0
 10 15  1  0
 15 16  1  6
 12 17  1  0
 15 17  1  0
M  END
$$$$
13
     RDKit          3D

 17 18  0  0  0  0  0  0  0  0999 V2000
   12.0254    2.4557   24.0050 O   0  0  0  0  0  0  0  0  0  0  0  0
   11.2736    3.1804   24.4935 C   0  0  0  0  0  0  0  0  0  0  0  0
   11.6372    4.4252   24.9529 N   0  0  0  0  0  0  0  0  0  0  0  0
    9.9097    2.8522   24.7893 N   0  0  0  0  0  0  0  0  0  0  0  0
    9.2133    3.8612   25.4072 C   0  0  0  0  0  0  0  0  0  0  0  0
    9.8346    4.9864   25.6281 C   0  0  1  0  0  0  0  0  0  0  0  0
    8.7558    6.0028   26.4027 C   0  0  0  0  0  0  0  0  0  0  0  0
   10.9920    5.3736   25.5202 C   0  0  0  0  0  0  0  0  0  0  0  0
   11.5829    6.5857   25.9240 C   0  0  0  0  0  0  0  0  0  0  0  0
   10.7184    7.5114   26.5413 C   0  0  2  0  0  0  0  0  0  0  0  0
   11.3111    8.7087   27.0502 O   0  0  0  0  0  0  0  0  0  0  0  0
    9.3967    7.2187   26.8137 C   0  0  1  0  0  0  0  0  0  0  0  0
    8.4487    8.3310   27.3165 C   0  0  0  0  0  0  0  0  0  0  0  0
    7.9433    8.0596   28.4788 C   0  0  0  0  0  0  0  0  0  0  0  0
    7.0496    8.8361   29.0100 O   0  0  0  0  0  0  0  0  0  0  0  0
    8.5276    7.1959   29.4978 N   0  0  0  0  0  0  0  0  0  0  0  0
    8.3619    7.4083   30.8990 C   0  0  0  0  0  0  0  0  0  0  0  0
  1  2  2  0
  2  3  1  0
  2  4  1  0
  4  5  1  0
  6  5  1  1
  6  7  1  0
  3  8  1  0
  6  8  1  0
  8  9  1  0
  9 10  1  0
 10 11  1  1
  7 12  1  0
 10 12  1  0
 12 13  1  6
 13 14  1  0
 14 15  2  0
 14 16  1  0
 16 17  1  0
M  END
$$$$
14
     RDKit          3D

 17 19  0  0  0  0  0  0  0  0999 V2000
    8.2629    8.0336   30.6915 C   0  0  0  0  0  0  0  0  0  0  0  0
    7.5529    7.2014   30.0107 C   0  0  0  0  0  0  0  0  0  0  0  0
    8.0893    6.3389   28.9556 C   0  0  1  0  0  0  0  0  0  0  0  0
    9.6744    8.1956   30.4206 C   0  0  0  0  0  0  0  0  0  0  0  0
    9.4728    6.5148   28.6914 C   0  0  1  0  0  0  0  0  0  0  0  0
   10.2178    7.4027   29.4550 C   0  0  0  0  0  0  0  0  0  0  0  0
    7.4420    5.3199   28.2043 C   0  0  0  0  0  0  0  0  0  0  0  0
   10.0228    5.6309   27.6642 C   0  0  1  0  0  0  0  0  0  0  0  0
    8.0657    4.7094   27.2650 C   0  0  1  0  0  0  0  0  0  0  0  0
    9.3606    4.8239   26.9784 C   0  0  0  0  0  0  0  0  0  0  0  0
   11.5405    5.8270   27.3703 C   0  0  0  0  0  0  0  0  0  0  0  0
    9.9087    3.9818   25.8763 C   0  0  0  0  0  0  0  0  0  0  0  0
    7.2037    3.7248   26.5218 O   0  0  0  0  0  0  0  0  0  0  0  0
    9.1843    3.0446   25.1162 O   0  0  0  0  0  0  0  0  0  0  0  0
   11.1645    4.0008   25.4124 C   0  0  1  0  0  0  0  0  0  0  0  0
   11.7677    3.3527   24.4024 C   0  0  0  0  0  0  0  0  0  0  0  0
   12.1145    5.1092   26.1371 C   0  0  0  0  0  0  0  0  0  0  0  0
  1  2  1  0
  3  2  1  1
  1  4  1  0
  3  5  1  0
  4  6  1  0
  5  6  1  1
  3  7  1  0
  5  8  1  0
  7  9  1  0
  8 10  1  0
  9 10  1  0
  8 11  1  6
 10 12  1  0
  9 13  1  1
 12 14  1  0
 12 15  1  0
 15 16  1  6
 11 17  1  0
 15 17  1  0
M  END
$$$$
15
     RDKit          3D

 17 19  0  0  0  0  0  0  0  0999 V2000
   12.0202    2.9861   24.6830 O   0  0  0  0  0  0  0  0  0  0  0  0
   10.8339    3.4254   24.5729 C   0  0  0  0  0  0  0  0  0  0  0  0
   10.3227    4.0122   25.7591 N   0  0  0  0  0  0  0  0  0  0  0  0
   10.4008    3.8965   23.4465 C   0  0  0  0  0  0  0  0  0  0  0  0
   10.8407    3.6473   27.0957 C   0  0  0  0  0  0  0  0  0  0  0  0
    9.0952    4.6776   25.5998 C   0  0  1  0  0  0  0  0  0  0  0  0
    8.3510    4.9948   26.7105 C   0  0  0  0  0  0  0  0  0  0  0  0
    8.9361    4.8234   28.0116 C   0  0  1  0  0  0  0  0  0  0  0  0
    8.8146    5.1636   24.4080 N   0  0  0  0  0  0  0  0  0  0  0  0
    9.4554    4.5388   23.4135 C   0  0  0  0  0  0  0  0  0  0  0  0
   10.1097    4.1240   28.1641 C   0  0  0  0  0  0  0  0  0  0  0  0
    9.1452    6.0504   28.7605 N   0  0  0  0  0  0  0  0  0  0  0  0
   10.2955    6.7904   29.0265 C   0  0  0  0  0  0  0  0  0  0  0  0
    7.8745    6.4933   29.4699 C   0  0  0  0  0  0  0  0  0  0  0  0
    7.8857    7.6927   30.2581 C   0  0  0  0  0  0  0  0  0  0  0  0
    9.2347    8.2871   30.2210 C   0  0  0  0  0  0  0  0  0  0  0  0
   10.3047    7.8573   29.7162 N   0  0  0  0  0  0  0  0  0  0  0  0
  1  2  2  0
  2  3  1  0
  2  4  1  0
  3  5  1  0
  3  6  1  0
  6  7  1  1
  7  8  1  0
  6  9  1  0
  4 10  1  0
  9 10  1  0
  5 11  1  0
  8 11  1  0
  8 12  1  6
 12 13  1  0
 12 14  1  0
 14 15  1  0
 15 16  1  0
 13 17  1  0
 16 17  1  0
M  END
$$$$
16
     RDKit          3D

 17 19  0  0  0  0  0  0  0  0999 V2000
    9.8581    7.9078   30.6039 C   0  0  0  0  0  0  0  0  0  0  0  0
    8.5522    7.8503   30.3030 C   0  0  0  0  0  0  0  0  0  0  0  0
   10.6685    7.5469   29.6445 N   0  0  0  0  0  0  0  0  0  0  0  0
    8.1354    7.3020   29.0896 C   0  0  0  0  0  0  0  0  0  0  0  0
    9.0311    6.8216   28.1900 C   0  0  2  0  0  0  0  0  0  0  0  0
   10.3973    7.0110   28.5164 C   0  0  0  0  0  0  0  0  0  0  0  0
   11.5400    6.6169   27.5587 N   0  0  0  0  0  0  0  0  0  0  0  0
    8.7737    6.2337   26.8008 C   0  0  0  0  0  0  0  0  0  0  0  0
    9.8768    5.8947   26.0215 N   0  0  0  0  0  0  0  0  0  0  0  0
   11.1854    6.0443   26.4627 C   0  0  1  0  0  0  0  0  0  0  0  0
    7.5024    6.0540   26.4476 N   0  0  0  0  0  0  0  0  0  0  0  0
   12.3843    5.6080   25.5725 C   0  0  0  0  0  0  0  0  0  0  0  0
    7.3044    5.5911   25.1872 C   0  0  1  0  0  0  0  0  0  0  0  0
    8.3766    5.1953   24.3806 C   0  0  0  0  0  0  0  0  0  0  0  0
    6.0131    5.1110   24.8261 O   0  0  0  0  0  0  0  0  0  0  0  0
    9.6319    5.3883   24.7647 C   0  0  0  0  0  0  0  0  0  0  0  0
    4.9945    6.0343   25.3050 C   0  0  0  0  0  0  0  0  0  0  0  0
  1  2  1  0
  1  3  1  0
  2  4  1  0
  5  4  1  6
  3  6  1  0
  5  6  1  0
  6  7  1  0
  5  8  1  0
  8  9  1  0
  7 10  1  0
  9 10  1  0
  8 11  1  0
 10 12  1  6
 11 13  1  0
 13 14  1  0
 13 15  1  1
  9 16  1  0
 14 16  1  0
 15 17  1  0
M  END
$$$$
17
     RDKit          3D

 17 18  0  0  0  0  0  0  0  0999 V2000
    8.3364    9.2832   30.6734 C   0  0  0  0  0  0  0  0  0  0  0  0
    9.1267    8.3468   30.1494 C   0  0  0  0  0  0  0  0  0  0  0  0
    7.0620    9.0450   30.7768 O   0  0  0  0  0  0  0  0  0  0  0  0
   10.2977    7.8470   30.7312 O   0  0  0  0  0  0  0  0  0  0  0  0
    9.0132    7.9056   28.7911 N   0  0  0  0  0  0  0  0  0  0  0  0
    9.5285    6.8991   28.2106 C   0  0  0  0  0  0  0  0  0  0  0  0
    8.9555    5.6584   28.3699 C   0  0  0  0  0  0  0  0  0  0  0  0
    9.4642    4.4535   27.6765 C   0  0  2  0  0  0  0  0  0  0  0  0
   10.6735    6.9742   27.3559 C   0  0  0  0  0  0  0  0  0  0  0  0
   10.5858    4.6600   26.8081 C   0  0  2  0  0  0  0  0  0  0  0  0
   11.1760    5.9406   26.6786 C   0  0  0  0  0  0  0  0  0  0  0  0
    8.8114    2.9581   27.7743 S   0  0  0  0  0  0  0  0  0  0  0  0
   12.5358    6.1833   25.6071 Cl  0  0  0  0  0  0  0  0  0  0  0  0
   10.8529    3.3860   26.0494 C   0  0  1  0  0  0  0  0  0  0  0  0
    9.9562    2.4096   26.5290 C   0  0  0  0  0  0  0  0  0  0  0  0
   11.7500    3.2255   25.0299 O   0  0  0  0  0  0  0  0  0  0  0  0
   11.1815    3.6522   23.7672 C   0  0  0  0  0  0  0  0  0  0  0  0
  1  2  1  0
  1  3  1  0
  2  4  2  0
  2  5  1  0
  5  6  1  0
  6  7  1  0
  8  7  1  6
  6  9  1  0
  8 10  1  0
  9 11  1  0
 10 11  1  6
  8 12  1  0
 11 13  1  0
 10 14  1  0
 12 15  1  0
 14 15  1  0
 14 16  1  6
 16 17  1  0
M  END
$$$$
18
     RDKit          3D

 17 19  0  0  0  0  0  0  0  0999 V2000
    9.8581    7.9078   30.6039 C   0  0  0  0  0  0  0  0  0  0  0  0
    8.5522    7.8503   30.3030 C   0  0  0  0  0  0  0  0  0  0  0  0
   10.6685    7.5469   29.6445 N   0  0  0  0  0  0  0  0  0  0  0  0
    8.1354    7.3020   29.0896 C   0  0  0  0  0  0  0  0  0  0  0  0
    9.0311    6.8216   28.1900 C   0  0  2  0  0  0  0  0  0  0  0  0
   10.3932    7.0346   28.5106 C   0  0  0  0  0  0  0  0  0  0  0  0
    8.6880    6.2240   26.8401 C   0  0  2  0  0  0  0  0  0  0  0  0
    9.7746    5.9156   26.0650 C   0  0  0  0  0  0  0  0  0  0  0  0
    7.6291    6.4332   26.0089 N   0  0  0  0  0  0  0  0  0  0  0  0
    7.9253    5.8944   24.8125 C   0  0  1  0  0  0  0  0  0  0  0  0
   11.4699    6.6661   27.6017 N   0  0  0  0  0  0  0  0  0  0  0  0
    9.2881    5.5152   24.8601 N   0  0  0  0  0  0  0  0  0  0  0  0
   11.2011    6.0184   26.4200 C   0  0  0  0  0  0  0  0  0  0  0  0
    9.8255    4.8554   23.7379 C   0  0  0  0  0  0  0  0  0  0  0  0
    6.9916    5.7000   23.8757 C   0  0  0  0  0  0  0  0  0  0  0  0
   10.9730    3.9579   24.1451 C   0  0  0  0  0  0  0  0  0  0  0  0
   10.9270    2.5821   23.6301 C   0  0  0  0  0  0  0  0  0  0  0  0
  1  2  1  0
  1  3  1  0
  2  4  1  0
  5  4  1  6
  3  6  1  0
  5  6  1  0
  5  7  1  0
  7  8  1  0
  7  9  1  6
  9 10  1  0
  6 11  1  0
  8 12  1  0
 10 12  1  0
  8 13  1  0
 11 13  1  0
 12 14  1  0
 10 15  1  1
 14 16  1  0
 16 17  1  0
M  END
$$$$
19
     RDKit          3D

 17 18  0  0  0  0  0  0  0  0999 V2000
   12.0254    2.4557   24.0050 O   0  0  0  0  0  0  0  0  0  0  0  0
   11.2736    3.1804   24.4935 C   0  0  0  0  0  0  0  0  0  0  0  0
   11.6372    4.4252   24.9529 N   0  0  0  0  0  0  0  0  0  0  0  0
    9.9097    2.8522   24.7893 N   0  0  0  0  0  0  0  0  0  0  0  0
    9.2133    3.8612   25.4072 C   0  0  0  0  0  0  0  0  0  0  0  0
    9.8346    4.9864   25.6281 C   0  0  1  0  0  0  0  0  0  0  0  0
    8.7558    6.0028   26.4027 C   0  0  0  0  0  0  0  0  0  0  0  0
   10.9920    5.3736   25.5202 C   0  0  0  0  0  0  0  0  0  0  0  0
   11.5829    6.5857   25.9240 C   0  0  0  0  0  0  0  0  0  0  0  0
   10.7184    7.5114   26.5413 C   0  0  2  0  0  0  0  0  0  0  0  0
   11.3111    8.7087   27.0502 O   0  0  0  0  0  0  0  0  0  0  0  0
    9.3967    7.2187   26.8137 C   0  0  1  0  0  0  0  0  0  0  0  0
    8.4487    8.3310   27.3165 C   0  0  0  0  0  0  0  0  0  0  0  0
    7.9433    8.0596   28.4788 C   0  0  0  0  0  0  0  0  0  0  0  0
    7.0496    8.8361   29.0100 O   0  0  0  0  0  0  0  0  0  0  0  0
    8.5276    7.1959   29.4978 C   0  0  0  0  0  0  0  0  0  0  0  0
    9.2277    7.7520   30.6405 C   0  0  0  0  0  0  0  0  0  0  0  0
  1  2  2  0
  2  3  1  0
  2  4  1  0
  4  5  1  0
  6  5  1  1
  6  7  1  0
  3  8  1  0
  6  8  1  0
  8  9  1  0
  9 10  1  0
 10 11  1  1
  7 12  1  0
 10 12  1  0
 12 13  1  6
 13 14  1  0
 14 15  2  0
 14 16  1  0
 16 17  1  0
M  END
$$$$
2
     RDKit          3D

 14 15  0  0  0  0  0  0  0  0999 V2000
   12.0254    2.4557   24.0050 O   0  0  0  0  0  0  0  0  0  0  0  0
   11.2736    3.1804   24.4935 C   0  0  0  0  0  0  0  0  0  0  0  0
   11.6372    4.4252   24.9529 N   0  0  0  0  0  0  0  0  0  0  0  0
    9.9097    2.8522   24.7893 N   0  0  0  0  0  0  0  0  0  0  0  0
    9.2133    3.8612   25.4072 C   0  0  0  0  0  0  0  0  0  0  0  0
    9.8346    4.9864   25.6281 C   0  0  1  0  0  0  0  0  0  0  0  0
    8.7558    6.0028   26.4027 C   0  0  2  0  0  0  0  0  0  0  0  0
   10.9920    5.3736   25.5202 C   0  0  0  0  0  0  0  0  0  0  0  0
   11.5829    6.5857   25.9240 C   0  0  0  0  0  0  0  0  0  0  0  0
   10.7184    7.5114   26.5413 C   0  0  0  0  0  0  0  0  0  0  0  0
    9.3854    7.2114   26.7825 C   0  0  0  0  0  0  0  0  0  0  0  0
    7.5656    5.5253   26.7222 O   0  0  0  0  0  0  0  0  0  0  0  0
    6.7015    5.5150   25.8234 C   0  0  0  0  0  0  0  0  0  0  0  0
    5.4220    4.9754   26.2220 C   0  0  0  0  0  0  0  0  0  0  0  0
  1  2  2  0
  2  3  1  0
  2  4  1  0
  4  5  1  0
  6  5  1  1
  6  7  1  0
  3  8  1  0
  6  8  1  0
  8  9  1  0
  9 10  1  0
  7 11  1  0
 10 11  1  0
  7 12  1  1
 12 13  1  0
 13 14  1  0
M  END
$$$$
20
     RDKit          3D

 17 18  0  0  0  0  0  0  0  0999 V2000
    8.2629    8.0336   30.6915 C   0  0  0  0  0  0  0  0  0  0  0  0
    7.5529    7.2014   30.0107 C   0  0  0  0  0  0  0  0  0  0  0  0
    8.0893    6.3389   28.9556 C   0  0  0  0  0  0  0  0  0  0  0  0
    9.3082    6.6168   28.7896 C   0  0  0  0  0  0  0  0  0  0  0  0
    9.6385    8.1990   30.4173 C   0  0  0  0  0  0  0  0  0  0  0  0
   10.0336    7.3928   29.3587 C   0  0  0  0  0  0  0  0  0  0  0  0
    9.9621    5.6731   27.5423 C   0  0  0  0  0  0  0  0  0  0  0  0
   10.2220    4.4365   27.7944 C   0  0  1  0  0  0  0  0  0  0  0  0
   10.1832    6.3541   26.3539 C   0  0  0  0  0  0  0  0  0  0  0  0
   10.6570    5.4995   25.2748 C   0  0  0  0  0  0  0  0  0  0  0  0
   10.8785    6.1699   24.0007 C   0  0  0  0  0  0  0  0  0  0  0  0
   10.7581    5.4869   22.9327 O   0  0  0  0  0  0  0  0  0  0  0  0
   10.8123    4.1284   25.5090 C   0  0  1  0  0  0  0  0  0  0  0  0
   11.3308    7.3624   24.0166 O   0  0  0  0  0  0  0  0  0  0  0  0
   10.0615    3.7006   29.0490 F   0  0  0  0  0  0  0  0  0  0  0  0
   10.5616    3.5746   26.7074 C   0  0  0  0  0  0  0  0  0  0  0  0
   11.1832    3.3232   24.2974 N   0  0  0  0  0  0  0  0  0  0  0  0
  1  2  1  0
  2  3  1  0
  3  4  1  0
  1  5  1  0
  4  6  1  0
  5  6  1  0
  4  7  1  0
  7  8  1  0
  7  9  1  0
  9 10  1  0
 10 11  1  0
 11 12  2  0
 10 13  1  0
 11 14  1  0
  8 15  1  6
  8 16  1  0
 13 16  1  0
 13 17  1  6
M  END
$$$$
21
     RDKit          3D

 17 19  0  0  0  0  0  0  0  0999 V2000
    9.8581    7.9078   30.6039 C   0  0  0  0  0  0  0  0  0  0  0  0
    8.5522    7.8503   30.3030 C   0  0  0  0  0  0  0  0  0  0  0  0
   10.6685    7.5469   29.6445 N   0  0  0  0  0  0  0  0  0  0  0  0
    8.1354    7.3020   29.0896 C   0  0  0  0  0  0  0  0  0  0  0  0
    9.0311    6.8216   28.1900 C   0  0  2  0  0  0  0  0  0  0  0  0
   10.3973    7.0110   28.5164 C   0  0  0  0  0  0  0  0  0  0  0  0
   11.5400    6.6169   27.5587 N   0  0  0  0  0  0  0  0  0  0  0  0
    8.7737    6.2337   26.8008 C   0  0  0  0  0  0  0  0  0  0  0  0
    7.4311    6.0148   26.4312 C   0  0  0  0  0  0  0  0  0  0  0  0
    9.8838    5.9123   25.9852 C   0  0  0  0  0  0  0  0  0  0  0  0
   11.2004    6.0950   26.4384 C   0  0  0  0  0  0  0  0  0  0  0  0
    7.2780    5.4861   25.1349 C   0  0  0  0  0  0  0  0  0  0  0  0
   12.3276    5.7915   25.5268 O   0  0  0  0  0  0  0  0  0  0  0  0
    8.1844    5.2805   24.4674 C   0  0  0  0  0  0  0  0  0  0  0  0
    9.6433    5.4275   24.8458 C   0  0  0  0  0  0  0  0  0  0  0  0
    5.8630    5.2148   24.8484 O   0  0  0  0  0  0  0  0  0  0  0  0
    4.9959    5.3271   25.9562 C   0  0  0  0  0  0  0  0  0  0  0  0
  1  2  1  0
  1  3  1  0
  2  4  1  0
  5  4  1  6
  3  6  1  0
  5  6  1  0
  6  7  1  0
  5  8  1  0
  8  9  1  0
  8 10  1  0
  7 11  1  0
 10 11  1  0
  9 12  1  0
 11 13  2  0
 12 14  1  0
 10 15  1  0
 14 15  1  0
 12 16  1  0
 16 17  1  0
M  END
$$$$
22
     RDKit          3D

 17 19  0  0  0  0  0  0  0  0999 V2000
   12.0202    2.9861   24.6830 O   0  0  0  0  0  0  0  0  0  0  0  0
   10.8339    3.4254   24.5729 C   0  0  0  0  0  0  0  0  0  0  0  0
   10.3227    4.0122   25.7591 N   0  0  0  0  0  0  0  0  0  0  0  0
   10.4008    3.8965   23.4465 C   0  0  0  0  0  0  0  0  0  0  0  0
   10.8407    3.6473   27.0957 C   0  0  0  0  0  0  0  0  0  0  0  0
    9.0952    4.6776   25.5998 C   0  0  1  0  0  0  0  0  0  0  0  0
    8.3510    4.9948   26.7105 C   0  0  0  0  0  0  0  0  0  0  0  0
    8.9361    4.8234   28.0116 C   0  0  1  0  0  0  0  0  0  0  0  0
    8.8146    5.1636   24.4080 N   0  0  0  0  0  0  0  0  0  0  0  0
    9.4554    4.5388   23.4135 C   0  0  0  0  0  0  0  0  0  0  0  0
   10.1097    4.1240   28.1641 C   0  0  0  0  0  0  0  0  0  0  0  0
    9.1452    6.0504   28.7605 N   0  0  0  0  0  0  0  0  0  0  0  0
   10.2955    6.7904   29.0265 C   0  0  0  0  0  0  0  0  0  0  0  0
    7.8745    6.4933   29.4699 C   0  0  0  0  0  0  0  0  0  0  0  0
    7.8857    7.6927   30.2581 C   0  0  0  0  0  0  0  0  0  0  0  0
    9.2347    8.2871   30.2210 C   0  0  0  0  0  0  0  0  0  0  0  0
   10.3388    7.6901   29.7544 C   0  0  0  0  0  0  0  0  0  0  0  0
  1  2  2  0
  2  3  1  0
  2  4  1  0
  3  5  1  0
  3  6  1  0
  6  7  1  1
  7  8  1  0
  6  9  1  0
  4 10  1  0
  9 10  1  0
  5 11  1  0
  8 11  1  0
  8 12  1  6
 12 13  1  0
 12 14  1  0
 14 15  1  0
 15 16  1  0
 13 17  1  0
 16 17  1  0
M  END
$$$$
23
     RDKit          3D

 18 20  0  0  0  0  0  0  0  0999 V2000
    9.8581    7.9078   30.6039 C   0  0  0  0  0  0  0  0  0  0  0  0
    8.5522    7.8503   30.3030 C   0  0  0  0  0  0  0  0  0  0  0  0
   10.6685    7.5469   29.6445 N   0  0  0  0  0  0  0  0  0  0  0  0
    8.1354    7.3020   29.0896 C   0  0  0  0  0  0  0  0  0  0  0  0
    9.0311    6.8216   28.1900 C   0  0  2  0  0  0  0  0  0  0  0  0
   10.3973    7.0110   28.5164 C   0  0  0  0  0  0  0  0  0  0  0  0
   11.5400    6.6169   27.5587 N   0  0  0  0  0  0  0  0  0  0  0  0
    8.7737    6.2337   26.8008 C   0  0  2  0  0  0  0  0  0  0  0  0
    9.8768    5.8947   26.0215 C   0  0  2  0  0  0  0  0  0  0  0  0
    7.5706    6.1355   26.1010 N   0  0  0  0  0  0  0  0  0  0  0  0
    9.5095    5.3136   24.7846 C   0  0  0  0  0  0  0  0  0  0  0  0
    6.3486    6.4415   26.5232 C   0  0  0  0  0  0  0  0  0  0  0  0
   11.2684    5.8710   26.4556 C   0  0  0  0  0  0  0  0  0  0  0  0
   12.2980    5.5756   25.5852 O   0  0  0  0  0  0  0  0  0  0  0  0
    8.0155    5.4920   24.8559 C   0  0  0  0  0  0  0  0  0  0  0  0
    7.0697    5.1777   23.9760 O   0  0  0  0  0  0  0  0  0  0  0  0
   10.0583    4.7132   23.6523 C   0  0  0  0  0  0  0  0  0  0  0  0
   10.3523    3.3045   23.8398 C   0  0  0  0  0  0  0  0  0  0  0  0
  1  2  1  0
  1  3  1  0
  2  4  1  0
  5  4  1  6
  3  6  1  0
  5  6  1  0
  6  7  1  0
  5  8  1  0
  8  9  1  0
  8 10  1  6
  9 11  1  1
 10 12  1  0
  7 13  1  0
  9 13  1  0
 13 14  2  0
 10 15  1  0
 11 15  1  0
 15 16  2  0
 11 17  1  0
 17 18  1  0
M  END
$$$$
24
     RDKit          3D

 18 20  0  0  0  0  0  0  0  0999 V2000
    8.2629    8.0336   30.6915 C   0  0  0  0  0  0  0  0  0  0  0  0
    7.5529    7.2014   30.0107 C   0  0  0  0  0  0  0  0  0  0  0  0
    9.4804    8.3652   30.0608 C   0  0  0  0  0  0  0  0  0  0  0  0
   10.0326    7.6981   29.0540 C   0  0  1  0  0  0  0  0  0  0  0  0
   11.3502    7.9556   28.5471 O   0  0  0  0  0  0  0  0  0  0  0  0
    8.1276    6.4026   29.0476 C   0  0  0  0  0  0  0  0  0  0  0  0
    9.3153    6.6514   28.5408 C   0  0  0  0  0  0  0  0  0  0  0  0
   11.5985    7.0939   27.5347 C   0  0  0  0  0  0  0  0  0  0  0  0
   10.2945    6.1588   27.5549 C   0  0  0  0  0  0  0  0  0  0  0  0
   12.5763    6.9264   26.7133 N   0  0  0  0  0  0  0  0  0  0  0  0
    9.9320    5.0311   26.8628 C   0  0  0  0  0  0  0  0  0  0  0  0
   12.7622    5.9467   25.9254 C   0  0  0  0  0  0  0  0  0  0  0  0
    8.9043    4.3250   26.7922 O   0  0  0  0  0  0  0  0  0  0  0  0
   10.8422    4.4047   25.7979 N   0  0  0  0  0  0  0  0  0  0  0  0
   11.9369    5.0586   25.4437 C   0  0  0  0  0  0  0  0  0  0  0  0
   10.2637    3.2787   25.1996 C   0  0  0  0  0  0  0  0  0  0  0  0
   11.1358    2.7015   24.3104 C   0  0  0  0  0  0  0  0  0  0  0  0
   10.8720    1.3662   23.9836 C   0  0  0  0  0  0  0  0  0  0  0  0
  1  2  1  0
  1  3  1  0
  4  3  1  1
  4  5  1  0
  2  6  1  0
  4  7  1  0
  6  7  1  0
  5  8  1  0
  7  9  1  0
  8  9  1  0
  8 10  1  0
  9 11  1  0
 10 12  1  0
 11 13  2  0
 11 14  1  0
 12 15  1  0
 14 15  1  0
 14 16  1  0
 16 17  1  0
 17 18  2  0
M  END
$$$$
25
     RDKit          3D

 18 20  0  0  0  0  0  0  0  0999 V2000
    9.8581    7.9078   30.6039 C   0  0  0  0  0  0  0  0  0  0  0  0
    8.5522    7.8503   30.3030 C   0  0  2  0  0  0  0  0  0  0  0  0
   10.6685    7.5469   29.6445 C   0  0  0  0  0  0  0  0  0  0  0  0
    7.5037    8.1859   31.2852 O   0  0  0  0  0  0  0  0  0  0  0  0
    8.0490    7.3682   29.0367 C   0  0  0  0  0  0  0  0  0  0  0  0
   10.2347    7.0082   28.4161 C   0  0  2  0  0  0  0  0  0  0  0  0
    8.8622    6.9205   28.1465 C   0  0  0  0  0  0  0  0  0  0  0  0
    8.5865    6.3046   26.7994 C   0  0  0  0  0  0  0  0  0  0  0  0
    6.1914    7.6413   30.9990 C   0  0  0  0  0  0  0  0  0  0  0  0
   10.9422    6.3609   27.3347 C   0  0  1  0  0  0  0  0  0  0  0  0
    9.9494    5.9934   26.3494 N   0  0  0  0  0  0  0  0  0  0  0  0
   12.3334    6.2465   27.1850 N   0  0  0  0  0  0  0  0  0  0  0  0
   10.3999    5.4499   25.0455 C   0  0  1  0  0  0  0  0  0  0  0  0
   11.5612    4.6620   25.1718 O   0  0  0  0  0  0  0  0  0  0  0  0
    9.3136    4.6253   24.4321 C   0  0  0  0  0  0  0  0  0  0  0  0
   11.2155    3.2583   24.9034 C   0  0  1  0  0  0  0  0  0  0  0  0
    9.8955    3.2808   24.3102 C   0  0  0  0  0  0  0  0  0  0  0  0
   12.2905    2.6614   24.0970 C   0  0  0  0  0  0  0  0  0  0  0  0
  1  2  1  0
  1  3  1  0
  2  4  1  1
  2  5  1  0
  6  3  1  1
  5  7  1  0
  6  7  1  0
  7  8  1  0
  4  9  1  0
  6 10  1  0
  8 11  1  0
 10 11  1  0
 10 12  1  6
 13 11  1  1
 13 14  1  0
 13 15  1  0
 14 16  1  0
 15 17  1  0
 16 17  1  0
 16 18  1  6
M  END
$$$$
26
     RDKit          3D

 18 20  0  0  0  0  0  0  0  0999 V2000
    9.4190    8.2745   30.7731 C   0  0  0  0  0  0  0  0  0  0  0  0
   10.4078    7.7179   30.0707 O   0  0  0  0  0  0  0  0  0  0  0  0
   10.1025    7.1896   28.9620 C   0  0  1  0  0  0  0  0  0  0  0  0
   11.0205    6.4837   28.0852 C   0  0  1  0  0  0  0  0  0  0  0  0
    8.6773    6.8927   28.7343 C   0  0  1  0  0  0  0  0  0  0  0  0
   12.4067    6.6102   28.2861 O   0  0  0  0  0  0  0  0  0  0  0  0
    8.1019    8.1327   30.4810 C   0  0  0  0  0  0  0  0  0  0  0  0
    7.8489    7.4927   29.4188 C   0  0  0  0  0  0  0  0  0  0  0  0
   10.5885    5.3010   27.5193 C   0  0  1  0  0  0  0  0  0  0  0  0
   12.7336    7.5951   27.4634 C   0  0  0  0  0  0  0  0  0  0  0  0
    8.4339    6.0046   27.4848 C   0  0  2  0  0  0  0  0  0  0  0  0
    6.9876    5.9904   27.1713 O   0  0  0  0  0  0  0  0  0  0  0  0
    9.2449    5.2105   27.0031 C   0  0  2  0  0  0  0  0  0  0  0  0
   11.6477    4.5146   26.8058 O   0  0  0  0  0  0  0  0  0  0  0  0
    8.9883    4.1692   26.1487 C   0  0  0  0  0  0  0  0  0  0  0  0
    9.9040    3.2388   25.6540 C   0  0  0  0  0  0  0  0  0  0  0  0
   11.3178    3.5720   25.9222 C   0  0  0  0  0  0  0  0  0  0  0  0
   12.3135    2.9857   25.3851 O   0  0  0  0  0  0  0  0  0  0  0  0
  1  2  1  0
  3  2  1  1
  3  4  1  0
  3  5  1  0
  4  6  1  1
  1  7  1  0
  5  8  1  6
  7  8  1  0
  4  9  1  0
  6 10  1  0
  5 11  1  0
 11 12  1  1
  9 13  1  0
 11 13  1  0
  9 14  1  6
 13 15  1  1
 15 16  1  0
 14 17  1  0
 16 17  1  0
 17 18  2  0
M  END
$$$$
27
     RDKit          3D

 18 20  0  0  0  0  0  0  0  0999 V2000
    9.8581    7.9078   30.6039 C   0  0  0  0  0  0  0  0  0  0  0  0
    8.5522    7.8503   30.3030 C   0  0  0  0  0  0  0  0  0  0  0  0
   10.6685    7.5469   29.6445 N   0  0  0  0  0  0  0  0  0  0  0  0
    8.1354    7.3020   29.0896 C   0  0  0  0  0  0  0  0  0  0  0  0
    9.0311    6.8216   28.1900 C   0  0  2  0  0  0  0  0  0  0  0  0
   10.3932    7.0346   28.5106 C   0  0  0  0  0  0  0  0  0  0  0  0
    8.6880    6.2240   26.8401 C   0  0  2  0  0  0  0  0  0  0  0  0
    9.7746    5.9156   26.0650 C   0  0  0  0  0  0  0  0  0  0  0  0
    7.6291    6.4332   26.0089 N   0  0  0  0  0  0  0  0  0  0  0  0
    7.9253    5.8944   24.8125 C   0  0  1  0  0  0  0  0  0  0  0  0
   11.4699    6.6661   27.6017 N   0  0  0  0  0  0  0  0  0  0  0  0
    9.2881    5.5152   24.8601 N   0  0  0  0  0  0  0  0  0  0  0  0
   11.2011    6.0184   26.4200 C   0  0  0  0  0  0  0  0  0  0  0  0
    9.8255    4.8554   23.7379 C   0  0  0  0  0  0  0  0  0  0  0  0
    6.9916    5.7000   23.8757 C   0  0  0  0  0  0  0  0  0  0  0  0
   10.9730    3.9579   24.1451 C   0  0  0  0  0  0  0  0  0  0  0  0
   10.6260    2.6613   24.6656 C   0  0  0  0  0  0  0  0  0  0  0  0
   11.3989    1.6408   24.3900 O   0  0  0  0  0  0  0  0  0  0  0  0
  1  2  1  0
  1  3  1  0
  2  4  1  0
  5  4  1  6
  3  6  1  0
  5  6  1  0
  5  7  1  0
  7  8  1  0
  7  9  1  6
  9 10  1  0
  6 11  1  0
  8 12  1  0
 10 12  1  0
  8 13  1  0
 11 13  1  0
 12 14  1  0
 10 15  1  1
 14 16  1  0
 16 17  1  0
 17 18  1  0
M  END
$$$$
28
     RDKit          3D

 18 19  0  0  0  0  0  0  0  0999 V2000
    8.3364    9.2832   30.6734 C   0  0  0  0  0  0  0  0  0  0  0  0
    9.1267    8.3468   30.1494 C   0  0  0  0  0  0  0  0  0  0  0  0
    7.0620    9.0450   30.7768 O   0  0  0  0  0  0  0  0  0  0  0  0
   10.2977    7.8470   30.7312 O   0  0  0  0  0  0  0  0  0  0  0  0
    9.0132    7.9056   28.7911 N   0  0  0  0  0  0  0  0  0  0  0  0
    9.5285    6.8991   28.2106 C   0  0  0  0  0  0  0  0  0  0  0  0
    8.9555    5.6584   28.3699 C   0  0  0  0  0  0  0  0  0  0  0  0
    9.4642    4.4535   27.6765 C   0  0  2  0  0  0  0  0  0  0  0  0
   10.6735    6.9742   27.3559 C   0  0  0  0  0  0  0  0  0  0  0  0
   10.5858    4.6600   26.8081 C   0  0  2  0  0  0  0  0  0  0  0  0
   11.1760    5.9406   26.6786 C   0  0  0  0  0  0  0  0  0  0  0  0
    8.8114    2.9581   27.7743 S   0  0  0  0  0  0  0  0  0  0  0  0
   12.5358    6.1833   25.6071 Cl  0  0  0  0  0  0  0  0  0  0  0  0
   10.8529    3.3860   26.0494 C   0  0  1  0  0  0  0  0  0  0  0  0
    9.9419    2.3338   26.6077 C   0  0  0  0  0  0  0  0  0  0  0  0
   10.9082    3.3567   24.5696 C   0  0  0  0  0  0  0  0  0  0  0  0
   11.6887    2.6057   23.9669 O   0  0  0  0  0  0  0  0  0  0  0  0
    9.9658    4.0094   23.9228 O   0  0  0  0  0  0  0  0  0  0  0  0
  1  2  1  0
  1  3  1  0
  2  4  2  0
  2  5  1  0
  5  6  1  0
  6  7  1  0
  8  7  1  6
  6  9  1  0
  8 10  1  0
  9 11  1  0
 10 11  1  6
  8 12  1  0
 11 13  1  0
 10 14  1  0
 12 15  1  0
 14 15  1  0
 14 16  1  6
 16 17  1  0
 16 18  2  0
M  END
$$$$
29
     RDKit          3D

 18 19  0  0  0  0  0  0  0  0999 V2000
   11.0303    6.7668   30.0234 O   0  0  0  0  0  0  0  0  0  0  0  0
   10.2471    7.2650   29.6195 C   0  0  0  0  0  0  0  0  0  0  0  0
    9.5258    8.1610   30.4953 C   0  0  0  0  0  0  0  0  0  0  0  0
    9.4445    7.1130   28.4363 N   0  0  0  0  0  0  0  0  0  0  0  0
    8.2058    8.5253   30.0041 C   0  0  1  0  0  0  0  0  0  0  0  0
    7.2348    9.4337   30.4161 C   0  0  0  0  0  0  0  0  0  0  0  0
    7.2694    9.8273   31.5660 O   0  0  0  0  0  0  0  0  0  0  0  0
    6.6487   10.3463   29.5882 O   0  0  0  0  0  0  0  0  0  0  0  0
    8.1882    7.8674   28.5710 C   0  0  0  0  0  0  0  0  0  0  0  0
    9.8888    6.4823   27.2544 C   0  0  0  0  0  0  0  0  0  0  0  0
   10.4649    5.3365   27.2134 C   0  0  0  0  0  0  0  0  0  0  0  0
    9.6675    7.1601   26.0152 C   0  0  0  0  0  0  0  0  0  0  0  0
   10.8483    4.6331   26.0350 C   0  0  0  0  0  0  0  0  0  0  0  0
   10.6024    5.2584   24.8334 C   0  0  1  0  0  0  0  0  0  0  0  0
   10.0662    6.4250   24.8820 C   0  0  0  0  0  0  0  0  0  0  0  0
   11.1412    4.5993   23.4336 Cl  0  0  0  0  0  0  0  0  0  0  0  0
   11.4811    3.3698   26.1501 O   0  0  0  0  0  0  0  0  0  0  0  0
   10.6344    2.2022   26.0905 C   0  0  0  0  0  0  0  0  0  0  0  0
  1  2  2  0
  2  3  1  0
  2  4  1  0
  3  5  1  0
  5  6  1  6
  6  7  1  0
  6  8  2  0
  4  9  1  0
  5  9  1  0
  4 10  1  0
 10 11  1  0
 10 12  1  0
 11 13  1  0
 13 14  1  0
 12 15  1  0
 14 15  1  0
 14 16  1  1
 13 17  1  0
 17 18  1  0
M  END
$$$$
3
     RDKit          3D

 14 14  0  0  0  0  0  0  0  0999 V2000
    8.3364    9.2832   30.6734 C   0  0  0  0  0  0  0  0  0  0  0  0
    9.1267    8.3468   30.1494 C   0  0  0  0  0  0  0  0  0  0  0  0
    7.0620    9.0450   30.7768 C   0  0  0  0  0  0  0  0  0  0  0  0
    8.7173    7.4624   29.6336 C   0  0  0  0  0  0  0  0  0  0  0  0
    6.4955    7.9471   30.1433 C   0  0  0  0  0  0  0  0  0  0  0  0
    9.5976    6.3274   28.9552 O   0  0  0  0  0  0  0  0  0  0  0  0
    7.3233    7.0113   29.5887 C   0  0  0  0  0  0  0  0  0  0  0  0
   10.8411    6.7048   28.5023 C   0  0  0  0  0  0  0  0  0  0  0  0
   11.4444    5.5242   27.9225 C   0  0  0  0  0  0  0  0  0  0  0  0
   11.7825    5.4689   26.6106 C   0  0  0  0  0  0  0  0  0  0  0  0
   10.9982    5.2719   25.6379 C   0  0  0  0  0  0  0  0  0  0  0  0
   10.9123    4.0703   24.9475 C   0  0  0  0  0  0  0  0  0  0  0  0
   11.8517    3.2410   25.1587 O   0  0  0  0  0  0  0  0  0  0  0  0
    9.8967    3.8743   24.0818 C   0  0  0  0  0  0  0  0  0  0  0  0
  1  2  1  0
  1  3  1  0
  2  4  1  0
  3  5  1  0
  4  6  1  0
  4  7  1  0
  5  7  1  0
  6  8  1  0
  8  9  1  0
  9 10  1  0
 10 11  1  0
 11 12  1  0
 12 13  1  0
 12 14  2  0
M  END
$$$$
30
     RDKit          3D

 18 21  0  0  0  0  0  0  0  0999 V2000
    9.4190    8.2745   30.7731 C   0  0  0  0  0  0  0  0  0  0  0  0
    8.2593    8.0434   30.2826 C   0  0  2  0  0  0  0  0  0  0  0  0
   10.6307    7.8294   30.1823 N   0  0  0  0  0  0  0  0  0  0  0  0
    7.0265    8.4654   30.9197 O   0  0  0  0  0  0  0  0  0  0  0  0
    8.1998    7.2507   29.0386 C   0  0  2  0  0  0  0  0  0  0  0  0
   10.5237    7.0001   29.0470 C   0  0  1  0  0  0  0  0  0  0  0  0
    6.9081    6.8843   28.4802 O   0  0  0  0  0  0  0  0  0  0  0  0
    9.3406    6.7687   28.4628 C   0  0  1  0  0  0  0  0  0  0  0  0
   11.8525    6.5205   28.4972 C   0  0  0  0  0  0  0  0  0  0  0  0
    6.9881    6.1688   27.4785 C   0  0  2  0  0  0  0  0  0  0  0  0
    5.6982    5.8127   26.8587 C   0  0  0  0  0  0  0  0  0  0  0  0
    8.2053    5.6330   26.9686 C   0  0  2  0  0  0  0  0  0  0  0  0
    9.3452    5.9177   27.4105 C   0  0  1  0  0  0  0  0  0  0  0  0
    8.0604    4.7504   25.6939 C   0  0  0  0  0  0  0  0  0  0  0  0
   11.7040    5.8587   27.2193 C   0  0  0  0  0  0  0  0  0  0  0  0
    6.7807    4.4420   25.1920 C   0  0  0  0  0  0  0  0  0  0  0  0
    5.6841    5.1629   25.8139 C   0  0  0  0  0  0  0  0  0  0  0  0
   10.5894    5.5932   26.8451 C   0  0  0  0  0  0  0  0  0  0  0  0
  1  2  1  0
  1  3  1  0
  2  4  1  1
  2  5  1  0
  3  6  1  0
  5  7  1  1
  5  8  1  0
  8  6  1  1
  6  9  1  6
  7 10  1  0
 10 11  1  1
 10 12  1  0
  8 13  1  0
 12 13  1  0
 12 14  1  6
  9 15  1  0
 14 16  1  0
 11 17  1  0
 16 17  1  0
 13 18  1  6
 15 18  1  0
M  END
$$$$
31
     RDKit          3D

 18 21  0  0  0  0  0  0  0  0999 V2000
    9.4190    8.2745   30.7731 C   0  0  0  0  0  0  0  0  0  0  0  0
   10.4078    7.7179   30.0707 O   0  0  0  0  0  0  0  0  0  0  0  0
   10.1025    7.1896   28.9620 C   0  0  1  0  0  0  0  0  0  0  0  0
   11.0205    6.4837   28.0852 C   0  0  2  0  0  0  0  0  0  0  0  0
    8.6773    6.8927   28.7343 C   0  0  1  0  0  0  0  0  0  0  0  0
   12.4067    6.6102   28.2861 O   0  0  0  0  0  0  0  0  0  0  0  0
    7.8223    7.5266   29.6006 C   0  0  0  0  0  0  0  0  0  0  0  0
    8.1667    8.2147   30.6477 C   0  0  0  0  0  0  0  0  0  0  0  0
   10.6749    6.0021   26.9779 C   0  0  1  0  0  0  0  0  0  0  0  0
   12.9254    6.0060   27.1202 C   0  0  0  0  0  0  0  0  0  0  0  0
    8.5249    6.1149   27.6176 C   0  0  1  0  0  0  0  0  0  0  0  0
   11.8607    5.5783   26.2869 C   0  0  0  0  0  0  0  0  0  0  0  0
    7.0261    5.8823   27.2761 N   0  0  0  0  0  0  0  0  0  0  0  0
    9.3332    5.7930   26.4806 C   0  0  2  0  0  0  0  0  0  0  0  0
    6.6465    5.2236   26.3526 C   0  0  0  0  0  0  0  0  0  0  0  0
    5.3160    4.8592   26.1974 O   0  0  0  0  0  0  0  0  0  0  0  0
    7.3989    5.0031   25.1395 C   0  0  0  0  0  0  0  0  0  0  0  0
    8.8361    5.2337   25.3371 C   0  0  0  0  0  0  0  0  0  0  0  0
  1  2  1  0
  3  2  1  1
  3  4  1  0
  3  5  1  0
  4  6  1  6
  5  7  1  6
  1  8  1  0
  7  8  1  0
  4  9  1  0
  6 10  1  0
  5 11  1  0
  9 12  1  1
 10 12  1  0
 11 13  1  6
  9 14  1  0
 11 14  1  0
 13 15  1  0
 15 16  2  0
 15 17  1  0
 14 18  1  1
 17 18  1  0
M  END
$$$$
32
     RDKit          3D

 18 19  0  0  0  0  0  0  0  0999 V2000
   11.0303    6.7668   30.0234 O   0  0  0  0  0  0  0  0  0  0  0  0
   10.2471    7.2650   29.6195 C   0  0  0  0  0  0  0  0  0  0  0  0
    9.5258    8.1610   30.4953 C   0  0  0  0  0  0  0  0  0  0  0  0
    9.4445    7.1130   28.4363 N   0  0  0  0  0  0  0  0  0  0  0  0
    8.2058    8.5253   30.0041 C   0  0  1  0  0  0  0  0  0  0  0  0
    7.2348    9.4337   30.4161 C   0  0  0  0  0  0  0  0  0  0  0  0
    7.2694    9.8273   31.5660 O   0  0  0  0  0  0  0  0  0  0  0  0
    6.6487   10.3463   29.5882 O   0  0  0  0  0  0  0  0  0  0  0  0
    8.1882    7.8674   28.5710 C   0  0  0  0  0  0  0  0  0  0  0  0
    9.8888    6.4823   27.2544 C   0  0  0  0  0  0  0  0  0  0  0  0
   10.4649    5.3365   27.2134 C   0  0  1  0  0  0  0  0  0  0  0  0
    9.6675    7.1601   26.0152 C   0  0  0  0  0  0  0  0  0  0  0  0
   10.7622    4.4747   28.5505 C   0  0  0  0  0  0  0  0  0  0  0  0
   10.0580    6.5141   24.9767 C   0  0  0  0  0  0  0  0  0  0  0  0
   10.7120    4.8510   25.9571 C   0  0  1  0  0  0  0  0  0  0  0  0
   10.5920    5.3928   24.8263 C   0  0  0  0  0  0  0  0  0  0  0  0
   11.5020    3.4807   26.1035 O   0  0  0  0  0  0  0  0  0  0  0  0
   11.1682    2.6134   24.9734 C   0  0  0  0  0  0  0  0  0  0  0  0
  1  2  2  0
  2  3  1  0
  2  4  1  0
  3  5  1  0
  5  6  1  6
  6  7  1  0
  6  8  2  0
  4  9  1  0
  5  9  1  0
  4 10  1  0
 10 11  1  0
 10 12  1  0
 11 13  1  1
 12 14  1  0
 11 15  1  0
 14 16  1  0
 15 16  1  0
 15 17  1  1
 17 18  1  0
M  END
$$$$
33
     RDKit          3D

 18 20  0  0  0  0  0  0  0  0999 V2000
    9.8581    7.9078   30.6039 C   0  0  0  0  0  0  0  0  0  0  0  0
    8.5522    7.8503   30.3030 C   0  0  0  0  0  0  0  0  0  0  0  0
   10.6685    7.5469   29.6445 N   0  0  0  0  0  0  0  0  0  0  0  0
    8.1354    7.3020   29.0896 C   0  0  0  0  0  0  0  0  0  0  0  0
    9.0311    6.8216   28.1900 C   0  0  2  0  0  0  0  0  0  0  0  0
   10.3973    7.0110   28.5164 C   0  0  0  0  0  0  0  0  0  0  0  0
   11.5400    6.6169   27.5587 N   0  0  0  0  0  0  0  0  0  0  0  0
    8.7737    6.2337   26.8008 C   0  0  2  0  0  0  0  0  0  0  0  0
    9.8768    5.8947   26.0215 C   0  0  2  0  0  0  0  0  0  0  0  0
    7.5706    6.1355   26.1010 N   0  0  0  0  0  0  0  0  0  0  0  0
    9.5095    5.3136   24.7846 C   0  0  2  0  0  0  0  0  0  0  0  0
    6.3486    6.4415   26.5232 C   0  0  0  0  0  0  0  0  0  0  0  0
   11.2684    5.8710   26.4556 C   0  0  1  0  0  0  0  0  0  0  0  0
   12.5251    5.2749   25.8910 C   0  0  0  0  0  0  0  0  0  0  0  0
   10.1874    4.7467   23.7321 C   0  0  0  0  0  0  0  0  0  0  0  0
    5.3071    6.2520   25.5997 C   0  0  0  0  0  0  0  0  0  0  0  0
    8.0051    5.6490   24.7827 C   0  0  0  0  0  0  0  0  0  0  0  0
    3.9437    6.2673   26.0574 O   0  0  0  0  0  0  0  0  0  0  0  0
  1  2  1  0
  1  3  1  0
  2  4  1  0
  5  4  1  6
  3  6  1  0
  5  6  1  0
  6  7  1  0
  5  8  1  0
  8  9  1  0
  8 10  1  6
  9 11  1  1
 10 12  1  0
  7 13  1  0
  9 13  1  0
 13 14  1  6
 11 15  1  6
 12 16  1  0
 10 17  1  0
 11 17  1  0
 16 18  1  0
M  END
$$$$
34
     RDKit          3D

 19 21  0  0  0  0  0  0  0  0999 V2000
    9.8581    7.9078   30.6039 C   0  0  0  0  0  0  0  0  0  0  0  0
    8.5522    7.8503   30.3030 C   0  0  2  0  0  0  0  0  0  0  0  0
   10.6685    7.5469   29.6445 C   0  0  0  0  0  0  0  0  0  0  0  0
    7.5037    8.1859   31.2852 O   0  0  0  0  0  0  0  0  0  0  0  0
    8.0490    7.3682   29.0367 C   0  0  0  0  0  0  0  0  0  0  0  0
   10.2347    7.0082   28.4161 C   0  0  2  0  0  0  0  0  0  0  0  0
    8.8622    6.9205   28.1465 C   0  0  0  0  0  0  0  0  0  0  0  0
    8.5865    6.3046   26.7994 C   0  0  0  0  0  0  0  0  0  0  0  0
    6.1914    7.6413   30.9990 C   0  0  0  0  0  0  0  0  0  0  0  0
   10.9422    6.3609   27.3347 C   0  0  1  0  0  0  0  0  0  0  0  0
    9.9494    5.9934   26.3494 N   0  0  0  0  0  0  0  0  0  0  0  0
   12.3334    6.2465   27.1850 N   0  0  0  0  0  0  0  0  0  0  0  0
   10.3999    5.4499   25.0455 C   0  0  1  0  0  0  0  0  0  0  0  0
   11.5612    4.6620   25.1718 O   0  0  0  0  0  0  0  0  0  0  0  0
    9.3136    4.6253   24.4321 C   0  0  0  0  0  0  0  0  0  0  0  0
   11.3840    3.4183   24.4379 C   0  0  1  0  0  0  0  0  0  0  0  0
    8.4535    5.2155   23.8441 O   0  0  0  0  0  0  0  0  0  0  0  0
   11.8632    2.2232   24.9228 O   0  0  0  0  0  0  0  0  0  0  0  0
    9.8851    3.4460   24.0211 C   0  0  0  0  0  0  0  0  0  0  0  0
  1  2  1  0
  1  3  1  0
  2  4  1  1
  2  5  1  0
  6  3  1  1
  5  7  1  0
  6  7  1  0
  7  8  1  0
  4  9  1  0
  6 10  1  0
  8 11  1  0
 10 11  1  0
 10 12  1  6
 13 11  1  1
 13 14  1  0
 13 15  1  0
 14 16  1  0
 15 17  2  0
 16 18  1  1
 15 19  1  0
 16 19  1  0
M  END
$$$$
35
     RDKit          3D

 19 21  0  0  0  0  0  0  0  0999 V2000
    9.8581    7.9078   30.6039 C   0  0  0  0  0  0  0  0  0  0  0  0
   10.6407    7.4504   29.6678 O   0  0  0  0  0  0  0  0  0  0  0  0
   10.1410    6.7846   28.6302 C   0  0  1  0  0  0  0  0  0  0  0  0
    8.8131    6.7329   28.5682 C   0  0  0  0  0  0  0  0  0  0  0  0
    8.0326    7.2627   29.5693 C   0  0  2  0  0  0  0  0  0  0  0  0
    6.5156    7.0834   29.4039 C   0  0  0  0  0  0  0  0  0  0  0  0
    8.1300    6.0265   27.4002 C   0  0  1  0  0  0  0  0  0  0  0  0
   10.4924    8.6124   31.6385 O   0  0  0  0  0  0  0  0  0  0  0  0
    8.5513    7.9914   30.6456 C   0  0  0  0  0  0  0  0  0  0  0  0
   11.2009    6.4028   27.7010 C   0  0  0  0  0  0  0  0  0  0  0  0
    6.7767    5.9735   27.4223 C   0  0  0  0  0  0  0  0  0  0  0  0
    8.5743    5.4798   26.0985 C   0  0  0  0  0  0  0  0  0  0  0  0
   11.7464    7.2770   26.8776 N   0  0  0  0  0  0  0  0  0  0  0  0
   11.8661    5.2708   28.0788 C   0  0  0  0  0  0  0  0  0  0  0  0
    7.7832    5.1296   25.2676 C   0  0  0  0  0  0  0  0  0  0  0  0
   11.1633    8.3367   26.2622 O   0  0  0  0  0  0  0  0  0  0  0  0
    6.5382    5.1809   25.5719 C   0  0  0  0  0  0  0  0  0  0  0  0
    5.9495    5.5178   26.5739 N   0  0  0  0  0  0  0  0  0  0  0  0
    5.9093    6.4770   28.4823 C   0  0  0  0  0  0  0  0  0  0  0  0
  1  2  1  0
  2  3  1  0
  3  4  1  0
  4  5  1  0
  5  6  1  6
  4  7  1  0
  1  8  2  0
  1  9  1  0
  5  9  1  0
  3 10  1  6
  7 11  1  0
  7 12  1  6
 10 13  1  0
 10 14  2  0
 12 15  1  0
 13 16  1  0
 15 17  1  0
 11 18  1  0
 17 18  1  0
  6 19  1  0
 11 19  1  0
M  END
$$$$
36
     RDKit          3D

 19 22  0  0  0  0  0  0  0  0999 V2000
    9.8581    7.9078   30.6039 C   0  0  0  0  0  0  0  0  0  0  0  0
    8.5522    7.8503   30.3030 C   0  0  0  0  0  0  0  0  0  0  0  0
   10.8417    7.4967   29.7624 N   0  0  0  0  0  0  0  0  0  0  0  0
   10.3715    6.9188   28.6604 C   0  0  1  0  0  0  0  0  0  0  0  0
   11.4069    6.3472   27.7224 N   0  0  0  0  0  0  0  0  0  0  0  0
    8.1646    7.1773   29.1664 C   0  0  0  0  0  0  0  0  0  0  0  0
    9.1155    6.6241   28.3151 C   0  0  0  0  0  0  0  0  0  0  0  0
    9.2901    5.8129   27.1584 C   0  0  2  0  0  0  0  0  0  0  0  0
   10.6302    5.6796   26.8070 C   0  0  2  0  0  0  0  0  0  0  0  0
    8.2708    5.5442   26.1799 C   0  0  2  0  0  0  0  0  0  0  0  0
    6.8676    5.6698   26.4225 C   0  0  0  0  0  0  0  0  0  0  0  0
    8.7297    4.8687   25.0023 C   0  0  2  0  0  0  0  0  0  0  0  0
    6.0264    5.3707   25.3927 C   0  0  0  0  0  0  0  0  0  0  0  0
   10.1869    4.6271   24.7947 C   0  0  1  0  0  0  0  0  0  0  0  0
   11.1735    4.9180   25.8032 C   0  0  0  0  0  0  0  0  0  0  0  0
   10.6579    3.9128   23.4694 C   0  0  0  0  0  0  0  0  0  0  0  0
    7.7955    4.6057   24.0909 C   0  0  0  0  0  0  0  0  0  0  0  0
    6.5287    4.9313   24.2008 C   0  0  0  0  0  0  0  0  0  0  0  0
   10.9114    2.5176   23.6231 C   0  0  0  0  0  0  0  0  0  0  0  0
  1  2  1  0
  1  3  1  0
  4  3  1  1
  4  5  1  0
  2  6  1  0
  4  7  1  0
  6  7  1  0
  8  7  1  6
  5  9  1  0
  8  9  1  0
  8 10  1  0
 10 11  1  1
 10 12  1  0
 11 13  1  0
 12 14  1  0
  9 15  1  1
 14 15  1  0
 14 16  1  1
 12 17  1  6
 13 18  1  0
 17 18  1  0
 16 19  1  0
M  END
$$$$
37
     RDKit          3D

 19 20  0  0  0  0  0  0  0  0999 V2000
    8.2629    8.0336   30.6915 C   0  0  0  0  0  0  0  0  0  0  0  0
    7.5529    7.2014   30.0107 C   0  0  0  0  0  0  0  0  0  0  0  0
    8.0893    6.3389   28.9556 C   0  0  0  0  0  0  0  0  0  0  0  0
    9.3082    6.6168   28.7896 C   0  0  0  0  0  0  0  0  0  0  0  0
    9.6385    8.1990   30.4173 C   0  0  0  0  0  0  0  0  0  0  0  0
   10.0336    7.3928   29.3587 C   0  0  0  0  0  0  0  0  0  0  0  0
    9.9621    5.6731   27.5423 C   0  0  0  0  0  0  0  0  0  0  0  0
   10.2220    4.4365   27.7944 C   0  0  0  0  0  0  0  0  0  0  0  0
   10.1832    6.3541   26.3539 C   0  0  0  0  0  0  0  0  0  0  0  0
   10.6570    5.4995   25.2748 C   0  0  0  0  0  0  0  0  0  0  0  0
   10.8785    6.1699   24.0007 C   0  0  0  0  0  0  0  0  0  0  0  0
   10.7581    5.4869   22.9327 O   0  0  0  0  0  0  0  0  0  0  0  0
   10.7851    3.6072   26.7228 C   0  0  0  0  0  0  0  0  0  0  0  0
   10.9176    4.2197   25.4397 C   0  0  2  0  0  0  0  0  0  0  0  0
   11.5133    3.2422   24.4673 C   0  0  0  0  0  0  0  0  0  0  0  0
   11.1404    7.4983   23.9255 N   0  0  0  0  0  0  0  0  0  0  0  0
   11.3379    8.2064   22.8215 C   0  0  0  0  0  0  0  0  0  0  0  0
   10.1801    8.6242   22.1537 C   0  0  0  0  0  0  0  0  0  0  0  0
   12.1641    9.4749   22.8920 C   0  0  0  0  0  0  0  0  0  0  0  0
  1  2  1  0
  2  3  1  0
  3  4  1  0
  1  5  1  0
  4  6  1  0
  5  6  1  0
  4  7  1  0
  7  8  1  0
  7  9  1  0
  9 10  1  0
 10 11  1  0
 11 12  2  0
  8 13  1  0
 10 14  1  0
 13 14  1  0
 14 15  1  1
 11 16  1  0
 16 17  1  0
 17 18  1  0
 17 19  1  0
M  END
$$$$
38
     RDKit          3D

 19 20  0  0  0  0  0  0  0  0999 V2000
   12.0202    2.9861   24.6830 O   0  0  0  0  0  0  0  0  0  0  0  0
   10.8339    3.4254   24.5729 C   0  0  0  0  0  0  0  0  0  0  0  0
   10.3616    3.6298   23.6055 O   0  0  0  0  0  0  0  0  0  0  0  0
   10.3254    4.3458   25.7329 C   0  0  2  0  0  0  0  0  0  0  0  0
    9.5118    3.8054   26.4604 C   0  0  2  0  0  0  0  0  0  0  0  0
    9.7500    5.6025   25.1861 C   0  0  2  0  0  0  0  0  0  0  0  0
   10.7130    6.6060   24.7725 C   0  0  1  0  0  0  0  0  0  0  0  0
   10.2469    7.8506   24.4416 C   0  0  2  0  0  0  0  0  0  0  0  0
   12.0724    6.4142   24.9793 O   0  0  0  0  0  0  0  0  0  0  0  0
    8.8979    8.0092   24.3411 C   0  0  0  0  0  0  0  0  0  0  0  0
    8.0106    7.0700   24.5745 C   0  0  2  0  0  0  0  0  0  0  0  0
    6.5879    7.2986   24.3985 N   0  0  0  0  0  0  0  0  0  0  0  0
    8.4357    5.8659   25.2066 C   0  0  1  0  0  0  0  0  0  0  0  0
    7.4019    4.9479   25.6391 C   0  0  0  0  0  0  0  0  0  0  0  0
    9.9241    2.7245   27.3674 C   0  0  0  0  0  0  0  0  0  0  0  0
    8.0389    3.8851   26.3572 C   0  0  0  0  0  0  0  0  0  0  0  0
   11.2520    8.8351   24.1653 C   0  0  0  0  0  0  0  0  0  0  0  0
    9.0595    1.8278   28.0106 C   0  0  0  0  0  0  0  0  0  0  0  0
    9.3925    1.3497   29.2160 O   0  0  0  0  0  0  0  0  0  0  0  0
  1  2  2  0
  2  3  1  0
  4  2  1  6
  4  5  1  0
  6  4  1  1
  6  7  1  0
  7  8  1  0
  7  9  1  1
  8 10  1  0
 10 11  1  0
 11 12  1  1
  6 13  1  0
 11 13  1  0
 13 14  1  6
  5 15  1  6
  5 16  1  0
 14 16  1  0
  8 17  1  6
 15 18  1  0
 18 19  1  0
M  END
$$$$
39
     RDKit          3D

 19 21  0  0  0  0  0  0  0  0999 V2000
    9.8581    7.9078   30.6039 C   0  0  0  0  0  0  0  0  0  0  0  0
    8.5522    7.8503   30.3030 C   0  0  0  0  0  0  0  0  0  0  0  0
   10.8417    7.4967   29.7624 N   0  0  0  0  0  0  0  0  0  0  0  0
   10.5556    6.9852   28.5868 C   0  0  0  0  0  0  0  0  0  0  0  0
   11.5151    6.4743   27.7005 N   0  0  0  0  0  0  0  0  0  0  0  0
    9.1102    6.9201   28.2335 C   0  0  0  0  0  0  0  0  0  0  0  0
    7.5040    8.3177   31.1835 O   0  0  0  0  0  0  0  0  0  0  0  0
    8.8384    6.3382   26.9016 C   0  0  2  0  0  0  0  0  0  0  0  0
    7.5150    6.2409   26.4884 C   0  0  0  0  0  0  0  0  0  0  0  0
    7.3166    5.6293   25.1770 C   0  0  1  0  0  0  0  0  0  0  0  0
    5.9312    5.4650   24.7750 C   0  0  0  0  0  0  0  0  0  0  0  0
    9.9631    5.8408   26.1813 N   0  0  0  0  0  0  0  0  0  0  0  0
    8.1688    7.3159   29.0442 C   0  0  0  0  0  0  0  0  0  0  0  0
    7.8573    6.1753   24.0062 C   0  0  0  0  0  0  0  0  0  0  0  0
    6.5939    9.0271   30.4662 C   0  0  0  0  0  0  0  0  0  0  0  0
    9.7434    5.2922   24.8701 C   0  0  0  0  0  0  0  0  0  0  0  0
   10.5216    4.3773   24.5543 O   0  0  0  0  0  0  0  0  0  0  0  0
   11.2880    5.8795   26.5697 C   0  0  0  0  0  0  0  0  0  0  0  0
    9.0825    5.6282   23.6948 N   0  0  0  0  0  0  0  0  0  0  0  0
  1  2  1  0
  1  3  1  0
  3  4  1  0
  4  5  1  0
  4  6  1  0
  2  7  1  0
  6  8  1  0
  8  9  1  1
  9 10  1  0
 10 11  1  6
  8 12  1  0
  2 13  1  0
  6 13  1  0
 10 14  1  0
  7 15  1  0
 12 16  1  0
 16 17  2  0
  5 18  1  0
 12 18  1  0
 14 19  1  0
 16 19  1  0
M  END
$$$$
4
     RDKit          3D

 14 15  0  0  0  0  0  0  0  0999 V2000
    8.2629    8.0336   30.6915 C   0  0  0  0  0  0  0  0  0  0  0  0
    7.5529    7.2014   30.0107 C   0  0  0  0  0  0  0  0  0  0  0  0
    9.4804    8.3652   30.0608 C   0  0  0  0  0  0  0  0  0  0  0  0
   10.0218    7.4533   29.2798 C   0  0  0  0  0  0  0  0  0  0  0  0
    8.1214    6.4055   29.1347 C   0  0  0  0  0  0  0  0  0  0  0  0
    9.3261    6.5203   28.6955 C   0  0  2  0  0  0  0  0  0  0  0  0
    7.2640    5.2257   28.5742 C   0  0  0  0  0  0  0  0  0  0  0  0
    7.8854    4.4907   27.6627 C   0  0  2  0  0  0  0  0  0  0  0  0
    9.1892    4.6310   27.2048 C   0  0  1  0  0  0  0  0  0  0  0  0
    7.0384    3.4711   27.0409 F   0  0  0  0  0  0  0  0  0  0  0  0
    9.8014    3.8246   26.1587 C   0  0  0  0  0  0  0  0  0  0  0  0
   10.0296    5.7054   27.7408 C   0  0  0  0  0  0  0  0  0  0  0  0
   10.7098    4.1364   25.4710 O   0  0  0  0  0  0  0  0  0  0  0  0
    9.3228    2.5572   25.9039 O   0  0  0  0  0  0  0  0  0  0  0  0
  1  2  1  0
  1  3  1  0
  3  4  1  0
  2  5  1  0
  6  4  1  1
  5  6  1  0
  5  7  1  0
  7  8  1  0
  8  9  1  0
  8 10  1  6
  9 11  1  6
  6 12  1  0
  9 12  1  0
 11 13  2  0
 11 14  1  0
M  END
$$$$
40
     RDKit          3D

 19 22  0  0  0  0  0  0  0  0999 V2000
    9.4190    8.2745   30.7731 C   0  0  0  0  0  0  0  0  0  0  0  0
   10.4078    7.7179   30.0707 O   0  0  0  0  0  0  0  0  0  0  0  0
   10.1025    7.1896   28.9620 C   0  0  1  0  0  0  0  0  0  0  0  0
   11.0205    6.4837   28.0852 C   0  0  2  0  0  0  0  0  0  0  0  0
    8.6773    6.8927   28.7343 C   0  0  1  0  0  0  0  0  0  0  0  0
   12.4067    6.6102   28.2861 O   0  0  0  0  0  0  0  0  0  0  0  0
    7.8223    7.5266   29.6006 C   0  0  0  0  0  0  0  0  0  0  0  0
    8.1667    8.2147   30.6477 C   0  0  0  0  0  0  0  0  0  0  0  0
   10.6749    6.0021   26.9779 C   0  0  1  0  0  0  0  0  0  0  0  0
   12.9254    6.0060   27.1202 C   0  0  0  0  0  0  0  0  0  0  0  0
    8.5249    6.1149   27.6176 C   0  0  1  0  0  0  0  0  0  0  0  0
   11.8607    5.5783   26.2869 C   0  0  0  0  0  0  0  0  0  0  0  0
    7.0261    5.8823   27.2761 N   0  0  0  0  0  0  0  0  0  0  0  0
    9.3332    5.7930   26.4806 C   0  0  1  0  0  0  0  0  0  0  0  0
    9.1513    5.5170   25.1855 C   0  0  0  0  0  0  0  0  0  0  0  0
    6.7891    5.5548   26.0525 C   0  0  1  0  0  0  0  0  0  0  0  0
    7.7146    5.3074   24.9999 C   0  0  0  0  0  0  0  0  0  0  0  0
    5.4052    5.0659   25.7684 O   0  0  0  0  0  0  0  0  0  0  0  0
    4.6100    4.8309   26.8151 C   0  0  0  0  0  0  0  0  0  0  0  0
  1  2  1  0
  3  2  1  1
  3  4  1  0
  3  5  1  0
  4  6  1  6
  5  7  1  6
  1  8  1  0
  7  8  1  0
  4  9  1  0
  6 10  1  0
  5 11  1  0
  9 12  1  1
 10 12  1  0
 11 13  1  6
  9 14  1  0
 11 14  1  0
 14 15  1  6
 13 16  1  0
 15 17  1  0
 16 17  1  0
 16 18  1  1
 18 19  1  0
M  END
$$$$
41
     RDKit          3D

 19 20  0  0  0  0  0  0  0  0999 V2000
    9.8581    7.9078   30.6039 C   0  0  0  0  0  0  0  0  0  0  0  0
    8.5522    7.8503   30.3030 C   0  0  2  0  0  0  0  0  0  0  0  0
   10.8417    7.4967   29.7624 N   0  0  0  0  0  0  0  0  0  0  0  0
   10.3715    6.9188   28.6604 C   0  0  0  0  0  0  0  0  0  0  0  0
    7.5714    8.3475   31.2458 O   0  0  0  0  0  0  0  0  0  0  0  0
    8.1925    7.1783   29.1548 C   0  0  0  0  0  0  0  0  0  0  0  0
    6.7380    6.9560   28.8532 O   0  0  0  0  0  0  0  0  0  0  0  0
   11.4352    6.4957   27.7352 N   0  0  0  0  0  0  0  0  0  0  0  0
    9.1142    6.7025   28.3052 C   0  0  0  0  0  0  0  0  0  0  0  0
    9.0470    5.9309   27.0712 C   0  0  1  0  0  0  0  0  0  0  0  0
   10.6606    5.8461   26.6763 C   0  0  2  0  0  0  0  0  0  0  0  0
    6.2771    5.7605   28.9127 C   0  0  0  0  0  0  0  0  0  0  0  0
    8.4426    4.6330   27.1300 O   0  0  0  0  0  0  0  0  0  0  0  0
   11.1597    4.5270   26.4881 C   0  0  0  0  0  0  0  0  0  0  0  0
    7.5056    4.4334   26.2997 C   0  0  0  0  0  0  0  0  0  0  0  0
   10.3699    3.6332   25.5849 C   0  0  0  0  0  0  0  0  0  0  0  0
   11.0180    2.5258   24.9851 C   0  0  0  0  0  0  0  0  0  0  0  0
   10.5506    1.3410   25.1521 O   0  0  0  0  0  0  0  0  0  0  0  0
   12.0514    2.6216   24.3412 O   0  0  0  0  0  0  0  0  0  0  0  0
  1  2  1  0
  1  3  1  0
  3  4  1  0
  2  5  1  1
  2  6  1  0
  6  7  1  0
  4  8  1  0
  4  9  1  0
  6  9  1  0
  9 10  1  0
  8 11  1  0
 10 11  1  0
  7 12  1  0
 10 13  1  1
 11 14  1  1
 13 15  1  0
 14 16  1  0
 16 17  1  0
 17 18  1  0
 17 19  2  0
M  END
$$$$
42
     RDKit          3D

 19 21  0  0  0  0  0  0  0  0999 V2000
    9.8581    7.9078   30.6039 C   0  0  0  0  0  0  0  0  0  0  0  0
    8.5522    7.8503   30.3030 C   0  0  0  0  0  0  0  0  0  0  0  0
   10.6685    7.5469   29.6445 N   0  0  0  0  0  0  0  0  0  0  0  0
    8.1354    7.3020   29.0896 C   0  0  0  0  0  0  0  0  0  0  0  0
    9.0311    6.8216   28.1900 C   0  0  0  0  0  0  0  0  0  0  0  0
   10.3973    7.0110   28.5164 C   0  0  0  0  0  0  0  0  0  0  0  0
   11.5400    6.6169   27.5587 N   0  0  0  0  0  0  0  0  0  0  0  0
   11.4282    7.2198   26.4187 C   0  0  0  0  0  0  0  0  0  0  0  0
   12.3165    5.5416   27.8555 C   0  0  0  0  0  0  0  0  0  0  0  0
   11.8656    4.3208   27.3263 O   0  0  0  0  0  0  0  0  0  0  0  0
   12.1532    8.2321   26.1563 O   0  0  0  0  0  0  0  0  0  0  0  0
   11.2757    6.3814   25.0892 C   0  0  2  0  0  0  0  0  0  0  0  0
   11.1424    4.9050   25.3305 C   0  0  2  0  0  0  0  0  0  0  0  0
   10.6000    4.3214   24.0897 C   0  0  0  0  0  0  0  0  0  0  0  0
   11.4697    6.9841   23.9764 O   0  0  0  0  0  0  0  0  0  0  0  0
   10.8060    4.3430   26.4266 C   0  0  1  0  0  0  0  0  0  0  0  0
   10.5159    2.8256   26.1793 C   0  0  0  0  0  0  0  0  0  0  0  0
    9.8308    2.5444   24.9837 N   0  0  0  0  0  0  0  0  0  0  0  0
   10.3341    3.1016   23.8124 C   0  0  0  0  0  0  0  0  0  0  0  0
  1  2  1  0
  1  3  1  0
  2  4  1  0
  4  5  1  0
  3  6  1  0
  5  6  1  0
  6  7  1  0
  7  8  1  0
  7  9  1  0
  9 10  1  0
  8 11  2  0
  8 12  1  0
 12 13  1  0
 13 14  1  6
 12 15  1  6
 10 16  1  0
 13 16  1  0
 16 17  1  6
 17 18  1  0
 14 19  1  0
 18 19  1  0
M  END
$$$$
43
     RDKit          3D

 19 21  0  0  0  0  0  0  0  0999 V2000
    9.4190    8.2745   30.7731 C   0  0  0  0  0  0  0  0  0  0  0  0
   10.4078    7.7179   30.0707 O   0  0  0  0  0  0  0  0  0  0  0  0
   10.1025    7.1896   28.9620 C   0  0  1  0  0  0  0  0  0  0  0  0
   11.0205    6.4837   28.0852 C   0  0  1  0  0  0  0  0  0  0  0  0
    8.6773    6.8927   28.7343 C   0  0  1  0  0  0  0  0  0  0  0  0
   12.4067    6.6102   28.2861 O   0  0  0  0  0  0  0  0  0  0  0  0
    8.1019    8.1327   30.4810 C   0  0  0  0  0  0  0  0  0  0  0  0
    7.8489    7.4927   29.4188 C   0  0  0  0  0  0  0  0  0  0  0  0
   10.5885    5.3010   27.5193 C   0  0  1  0  0  0  0  0  0  0  0  0
   12.7336    7.5951   27.4634 C   0  0  0  0  0  0  0  0  0  0  0  0
    8.4339    6.0046   27.4848 C   0  0  1  0  0  0  0  0  0  0  0  0
    9.3334    5.2274   26.9950 C   0  0  2  0  0  0  0  0  0  0  0  0
    6.9309    5.7505   27.2873 C   0  0  0  0  0  0  0  0  0  0  0  0
   11.7242    4.7164   26.7629 O   0  0  0  0  0  0  0  0  0  0  0  0
    9.0262    4.1413   26.0248 C   0  0  0  0  0  0  0  0  0  0  0  0
    9.7966    3.2752   25.5507 O   0  0  0  0  0  0  0  0  0  0  0  0
    7.6515    4.0339   25.6864 N   0  0  0  0  0  0  0  0  0  0  0  0
    6.7139    5.0158   26.1500 C   0  0  0  0  0  0  0  0  0  0  0  0
    5.8059    5.4176   25.1793 O   0  0  0  0  0  0  0  0  0  0  0  0
  1  2  1  0
  3  2  1  1
  3  4  1  0
  3  5  1  0
  4  6  1  1
  1  7  1  0
  5  8  1  6
  7  8  1  0
  4  9  1  0
  6 10  1  0
  5 11  1  0
  9 12  1  0
 11 12  1  0
 11 13  1  1
  9 14  1  6
 12 15  1  1
 15 16  2  0
 15 17  1  0
 13 18  1  0
 17 18  1  0
 18 19  2  0
M  END
$$$$
44
     RDKit          3D

 19 21  0  0  0  0  0  0  0  0999 V2000
    9.8581    7.9078   30.6039 C   0  0  0  0  0  0  0  0  0  0  0  0
    8.5522    7.8503   30.3030 C   0  0  0  0  0  0  0  0  0  0  0  0
    8.2434    7.1709   29.0410 C   0  0  0  0  0  0  0  0  0  0  0  0
   10.7711    7.3930   29.6283 N   0  0  0  0  0  0  0  0  0  0  0  0
   10.2611    6.7724   28.6571 C   0  0  0  0  0  0  0  0  0  0  0  0
    9.1239    6.7046   28.4054 C   0  0  1  0  0  0  0  0  0  0  0  0
    8.9480    5.7697   27.1250 C   0  0  2  0  0  0  0  0  0  0  0  0
   10.2420    5.4362   26.6422 N   0  0  0  0  0  0  0  0  0  0  0  0
   11.1828    6.0982   27.6653 C   0  0  0  0  0  0  0  0  0  0  0  0
    7.9906    5.4472   26.3292 N   0  0  0  0  0  0  0  0  0  0  0  0
   10.2410    4.7474   25.7071 C   0  0  2  0  0  0  0  0  0  0  0  0
    6.5896    5.5628   26.3844 C   0  0  0  0  0  0  0  0  0  0  0  0
   11.3782    4.2328   24.9379 C   0  0  0  0  0  0  0  0  0  0  0  0
    8.8688    4.5814   25.4300 C   0  0  0  0  0  0  0  0  0  0  0  0
    6.0703    5.6637   25.1414 C   0  0  0  0  0  0  0  0  0  0  0  0
    4.6069    5.7470   25.1250 C   0  0  0  0  0  0  0  0  0  0  0  0
    3.9446    6.2478   24.0257 O   0  0  0  0  0  0  0  0  0  0  0  0
   11.5662    2.9329   24.9687 O   0  0  0  0  0  0  0  0  0  0  0  0
    4.0001    5.2452   26.0888 O   0  0  0  0  0  0  0  0  0  0  0  0
  1  2  1  0
  2  3  1  0
  1  4  1  0
  4  5  1  0
  6  3  1  1
  5  6  1  0
  6  7  1  0
  7  8  1  0
  5  9  1  0
  8  9  1  0
  7 10  1  6
  8 11  1  0
 10 12  1  0
 11 13  1  6
 10 14  1  0
 11 14  1  0
 12 15  1  0
 15 16  1  0
 16 17  1  0
 13 18  1  0
 16 19  2  0
M  END
$$$$
45
     RDKit          3D

 19 21  0  0  0  0  0  0  0  0999 V2000
    9.8581    7.9078   30.6039 C   0  0  0  0  0  0  0  0  0  0  0  0
    8.5522    7.8503   30.3030 C   0  0  2  0  0  0  0  0  0  0  0  0
   10.8417    7.4967   29.7624 N   0  0  0  0  0  0  0  0  0  0  0  0
   10.3715    6.9188   28.6604 C   0  0  0  0  0  0  0  0  0  0  0  0
    7.5714    8.3475   31.2458 O   0  0  0  0  0  0  0  0  0  0  0  0
    8.1925    7.1783   29.1548 C   0  0  0  0  0  0  0  0  0  0  0  0
    6.7380    6.9560   28.8532 O   0  0  0  0  0  0  0  0  0  0  0  0
   11.4352    6.4957   27.7352 N   0  0  0  0  0  0  0  0  0  0  0  0
    9.1142    6.7025   28.3052 C   0  0  0  0  0  0  0  0  0  0  0  0
    9.0470    5.9309   27.0712 C   0  0  1  0  0  0  0  0  0  0  0  0
   10.6606    5.8461   26.6763 C   0  0  2  0  0  0  0  0  0  0  0  0
    6.2771    5.7605   28.9127 C   0  0  0  0  0  0  0  0  0  0  0  0
    8.4426    4.6330   27.1300 O   0  0  0  0  0  0  0  0  0  0  0  0
   11.1597    4.5270   26.4881 C   0  0  1  0  0  0  0  0  0  0  0  0
   10.1727    3.6072   25.8787 C   0  0  1  0  0  0  0  0  0  0  0  0
   10.7601    2.3913   25.3433 O   0  0  0  0  0  0  0  0  0  0  0  0
    9.1989    3.5667   26.7764 C   0  0  0  0  0  0  0  0  0  0  0  0
   12.3651    4.4757   25.6393 O   0  0  0  0  0  0  0  0  0  0  0  0
    8.6792    2.4656   27.3875 O   0  0  0  0  0  0  0  0  0  0  0  0
  1  2  1  0
  1  3  1  0
  3  4  1  0
  2  5  1  1
  2  6  1  0
  6  7  1  0
  4  8  1  0
  4  9  1  0
  6  9  1  0
  9 10  1  0
 11  8  1  1
 10 11  1  0
  7 12  1  0
 10 13  1  1
 11 14  1  0
 14 15  1  0
 15 16  1  1
 13 17  1  0
 15 17  1  0
 14 18  1  6
 17 19  2  0
M  END
$$$$
46
     RDKit          3D

 19 20  0  0  0  0  0  0  0  0999 V2000
   12.0202    2.9861   24.6830 O   0  0  0  0  0  0  0  0  0  0  0  0
   10.8339    3.4254   24.5729 C   0  0  0  0  0  0  0  0  0  0  0  0
   10.3616    3.6298   23.6055 O   0  0  0  0  0  0  0  0  0  0  0  0
   10.3254    4.3458   25.7329 C   0  0  2  0  0  0  0  0  0  0  0  0
    9.5118    3.8054   26.4604 C   0  0  2  0  0  0  0  0  0  0  0  0
    9.7500    5.6025   25.1861 C   0  0  2  0  0  0  0  0  0  0  0  0
   10.7130    6.6060   24.7725 C   0  0  1  0  0  0  0  0  0  0  0  0
   10.2469    7.8506   24.4416 C   0  0  0  0  0  0  0  0  0  0  0  0
   12.0724    6.4142   24.9793 O   0  0  0  0  0  0  0  0  0  0  0  0
    8.8979    8.0092   24.3411 C   0  0  0  0  0  0  0  0  0  0  0  0
    8.0106    7.0700   24.5745 C   0  0  2  0  0  0  0  0  0  0  0  0
    6.5879    7.2986   24.3985 N   0  0  0  0  0  0  0  0  0  0  0  0
    8.4357    5.8659   25.2066 C   0  0  1  0  0  0  0  0  0  0  0  0
    7.4019    4.9479   25.6391 C   0  0  0  0  0  0  0  0  0  0  0  0
    9.9241    2.7245   27.3674 C   0  0  0  0  0  0  0  0  0  0  0  0
    8.0764    3.9052   26.4143 C   0  0  0  0  0  0  0  0  0  0  0  0
   12.7467    7.5053   25.4996 C   0  0  0  0  0  0  0  0  0  0  0  0
   10.7608    3.1733   28.3713 O   0  0  0  0  0  0  0  0  0  0  0  0
    9.6083    1.5123   27.3939 O   0  0  0  0  0  0  0  0  0  0  0  0
  1  2  2  0
  2  3  1  0
  4  2  1  6
  4  5  1  0
  4  6  1  0
  6  7  1  1
  7  8  1  0
  7  9  1  1
  8 10  1  0
 10 11  1  0
 11 12  1  1
  6 13  1  0
 11 13  1  0
 13 14  1  6
  5 15  1  6
  5 16  1  0
 14 16  1  0
  9 17  1  0
 15 18  1  0
 15 19  2  0
M  END
$$$$
47
     RDKit          3D

 19 21  0  0  0  0  0  0  0  0999 V2000
    8.3364    9.2832   30.6734 C   0  0  0  0  0  0  0  0  0  0  0  0
    9.1267    8.3468   30.1494 C   0  0  0  0  0  0  0  0  0  0  0  0
    9.2462    7.6844   29.1893 C   0  0  1  0  0  0  0  0  0  0  0  0
    7.1685    9.4222   29.9110 C   0  0  0  0  0  0  0  0  0  0  0  0
   10.2985    6.7629   28.7298 C   0  0  0  0  0  0  0  0  0  0  0  0
    8.0210    7.7959   28.3409 C   0  0  2  0  0  0  0  0  0  0  0  0
    7.0339    8.6452   28.7137 C   0  0  0  0  0  0  0  0  0  0  0  0
    8.1292    6.8380   27.2632 C   0  0  0  0  0  0  0  0  0  0  0  0
   10.2215    6.0151   27.6246 C   0  0  1  0  0  0  0  0  0  0  0  0
   11.3345    5.0541   27.3515 C   0  0  2  0  0  0  0  0  0  0  0  0
    9.0566    6.0524   26.9192 C   0  0  2  0  0  0  0  0  0  0  0  0
   11.1384    4.1471   26.3938 N   0  0  0  0  0  0  0  0  0  0  0  0
    9.0563    5.2870   25.6477 C   0  0  0  0  0  0  0  0  0  0  0  0
   10.1544    4.4160   25.3260 C   0  0  0  0  0  0  0  0  0  0  0  0
    7.9979    5.3598   24.6990 C   0  0  0  0  0  0  0  0  0  0  0  0
   12.3545    4.9481   28.1708 N   0  0  0  0  0  0  0  0  0  0  0  0
    6.7258    5.6233   25.0191 C   0  0  0  0  0  0  0  0  0  0  0  0
    5.7791    5.9566   24.1738 C   0  0  0  0  0  0  0  0  0  0  0  0
   10.4728    3.7035   24.0197 C   0  0  0  0  0  0  0  0  0  0  0  0
  1  2  1  0
  3  2  1  1
  1  4  1  0
  3  5  1  0
  3  6  1  0
  4  7  1  0
  6  7  1  1
  6  8  1  0
  9  5  1  1
  9 10  1  0
 11  8  1  6
  9 11  1  0
 10 12  1  0
 11 13  1  0
 12 14  1  0
 13 14  1  0
 13 15  1  0
 10 16  1  1
 15 17  1  0
 17 18  1  0
 14 19  1  0
M  END
$$$$
48
     RDKit          3D

 19 22  0  0  0  0  0  0  0  0999 V2000
    9.8581    7.9078   30.6039 C   0  0  0  0  0  0  0  0  0  0  0  0
    8.5522    7.8503   30.3030 C   0  0  0  0  0  0  0  0  0  0  0  0
   10.6685    7.5469   29.6445 N   0  0  0  0  0  0  0  0  0  0  0  0
    8.1354    7.3020   29.0896 C   0  0  0  0  0  0  0  0  0  0  0  0
    9.0311    6.8216   28.1900 C   0  0  2  0  0  0  0  0  0  0  0  0
   10.3973    7.0110   28.5164 C   0  0  0  0  0  0  0  0  0  0  0  0
   11.5400    6.6169   27.5587 N   0  0  0  0  0  0  0  0  0  0  0  0
    8.7737    6.2337   26.8008 C   0  0  2  0  0  0  0  0  0  0  0  0
    9.8768    5.8947   26.0215 C   0  0  1  0  0  0  0  0  0  0  0  0
    7.5706    6.1355   26.1010 N   0  0  0  0  0  0  0  0  0  0  0  0
    6.3127    6.4154   26.7257 C   0  0  0  0  0  0  0  0  0  0  0  0
    5.1888    6.2065   25.8420 C   0  0  0  0  0  0  0  0  0  0  0  0
    7.5797    4.9422   25.3192 C   0  0  0  0  0  0  0  0  0  0  0  0
    4.0010    5.8851   26.5042 O   0  0  0  0  0  0  0  0  0  0  0  0
    8.6476    4.9398   24.3810 C   0  0  0  0  0  0  0  0  0  0  0  0
   11.1524    6.0284   26.5710 C   0  0  1  0  0  0  0  0  0  0  0  0
    9.8235    4.7715   25.0673 C   0  0  1  0  0  0  0  0  0  0  0  0
   12.0290    5.5256   25.5107 C   0  0  0  0  0  0  0  0  0  0  0  0
   11.2322    4.6955   24.5903 C   0  0  0  0  0  0  0  0  0  0  0  0
  1  2  1  0
  1  3  1  0
  2  4  1  0
  5  4  1  6
  3  6  1  0
  5  6  1  0
  6  7  1  0
  5  8  1  0
  8  9  1  0
  8 10  1  6
 10 11  1  0
 11 12  1  0
 10 13  1  0
 12 14  1  0
 13 15  1  0
  7 16  1  0
  9 16  1  1
  9 17  1  0
 17 15  1  6
 16 18  1  6
 17 19  1  0
 18 19  1  0
M  END
$$$$
49
     RDKit          3D

 19 21  0  0  0  0  0  0  0  0999 V2000
    8.2629    8.0336   30.6915 C   0  0  0  0  0  0  0  0  0  0  0  0
    7.5529    7.2014   30.0107 C   0  0  0  0  0  0  0  0  0  0  0  0
    9.4804    8.3652   30.0608 C   0  0  0  0  0  0  0  0  0  0  0  0
   10.0218    7.4533   29.2798 C   0  0  0  0  0  0  0  0  0  0  0  0
    8.1214    6.4055   29.1347 C   0  0  0  0  0  0  0  0  0  0  0  0
    9.3261    6.5203   28.6955 C   0  0  0  0  0  0  0  0  0  0  0  0
    9.9015    5.5795   27.5572 C   0  0  0  0  0  0  0  0  0  0  0  0
    9.9369    6.0767   26.3954 N   0  0  0  0  0  0  0  0  0  0  0  0
   10.4224    5.1953   25.3547 C   0  0  1  0  0  0  0  0  0  0  0  0
   10.6404    5.5476   24.0753 C   0  0  2  0  0  0  0  0  0  0  0  0
   10.2889    4.3998   27.8513 C   0  0  0  0  0  0  0  0  0  0  0  0
   10.9109    3.9846   25.7190 C   0  0  2  0  0  0  0  0  0  0  0  0
   10.2592    6.8407   23.5189 C   0  0  0  0  0  0  0  0  0  0  0  0
   11.4591    3.1712   24.6034 C   0  0  0  0  0  0  0  0  0  0  0  0
    9.0015    7.1262   23.4713 O   0  0  0  0  0  0  0  0  0  0  0  0
   10.8556    3.4944   26.9369 N   0  0  0  0  0  0  0  0  0  0  0  0
   11.0830    4.6477   23.1069 C   0  0  0  0  0  0  0  0  0  0  0  0
   11.4239    3.3984   23.6036 C   0  0  0  0  0  0  0  0  0  0  0  0
   11.0534    7.6243   22.7806 O   0  0  0  0  0  0  0  0  0  0  0  0
  1  2  1  0
  1  3  1  0
  3  4  1  0
  2  5  1  0
  4  6  1  0
  5  6  1  0
  6  7  1  0
  7  8  1  0
  9  8  1  1
  9 10  1  0
  7 11  1  0
  9 12  1  0
 10 13  1  6
 12 14  1  6
 13 15  2  0
 11 16  1  0
 12 16  1  0
 10 17  1  0
 14 18  1  0
 17 18  1  0
 13 19  1  0
M  END
$$$$
5
     RDKit          3D

 14 14  0  0  0  0  0  0  0  0999 V2000
   12.0202    2.9861   24.6830 O   0  0  0  0  0  0  0  0  0  0  0  0
   11.2661    3.9801   24.8427 C   0  0  2  0  0  0  0  0  0  0  0  0
   10.3355    4.3198   23.9149 C   0  0  0  0  0  0  0  0  0  0  0  0
    9.5904    5.4868   23.9541 C   0  0  0  0  0  0  0  0  0  0  0  0
    9.6560    6.3484   24.9482 C   0  0  0  0  0  0  0  0  0  0  0  0
   10.6389    6.0303   25.9913 C   0  0  1  0  0  0  0  0  0  0  0  0
   11.4340    4.9295   25.9039 C   0  0  0  0  0  0  0  0  0  0  0  0
   10.9469    6.9106   27.1325 C   0  0  0  0  0  0  0  0  0  0  0  0
   11.4449    8.0572   26.9550 O   0  0  0  0  0  0  0  0  0  0  0  0
   10.7760    6.5620   28.3869 N   0  0  0  0  0  0  0  0  0  0  0  0
   10.9113    7.4364   29.4615 C   0  0  0  0  0  0  0  0  0  0  0  0
    9.5169    7.8931   29.8451 C   0  0  0  0  0  0  0  0  0  0  0  0
    8.5344    7.3211   29.9744 O   0  0  0  0  0  0  0  0  0  0  0  0
    9.6216    9.0999   30.5644 O   0  0  0  0  0  0  0  0  0  0  0  0
  2  1  1  6
  2  3  1  0
  3  4  1  0
  4  5  1  0
  5  6  1  0
  2  7  1  0
  6  7  1  0
  6  8  1  6
  8  9  2  0
  8 10  1  0
 10 11  1  0
 11 12  1  0
 12 13  2  0
 12 14  1  0
M  END
$$$$
50
     RDKit          3D

 19 21  0  0  0  0  0  0  0  0999 V2000
    9.8581    7.9078   30.6039 C   0  0  0  0  0  0  0  0  0  0  0  0
   10.6407    7.4504   29.6678 O   0  0  0  0  0  0  0  0  0  0  0  0
   10.1410    6.7846   28.6302 C   0  0  1  0  0  0  0  0  0  0  0  0
    8.8131    6.7329   28.5682 C   0  0  0  0  0  0  0  0  0  0  0  0
    8.0326    7.2627   29.5693 C   0  0  2  0  0  0  0  0  0  0  0  0
    6.5156    7.0834   29.4039 C   0  0  0  0  0  0  0  0  0  0  0  0
    8.1300    6.0265   27.4002 C   0  0  1  0  0  0  0  0  0  0  0  0
   10.4924    8.6124   31.6385 O   0  0  0  0  0  0  0  0  0  0  0  0
    8.5513    7.9914   30.6456 C   0  0  0  0  0  0  0  0  0  0  0  0
   11.2009    6.4028   27.7010 C   0  0  0  0  0  0  0  0  0  0  0  0
    6.7767    5.9735   27.4223 C   0  0  0  0  0  0  0  0  0  0  0  0
    8.5743    5.4798   26.0985 C   0  0  0  0  0  0  0  0  0  0  0  0
   11.7464    7.2770   26.8776 N   0  0  0  0  0  0  0  0  0  0  0  0
   11.8661    5.2708   28.0788 C   0  0  0  0  0  0  0  0  0  0  0  0
    7.7832    5.1296   25.2676 C   0  0  0  0  0  0  0  0  0  0  0  0
   11.1633    8.3367   26.2622 O   0  0  0  0  0  0  0  0  0  0  0  0
    6.5382    5.1809   25.5719 C   0  0  0  0  0  0  0  0  0  0  0  0
    6.0638    6.5563   28.6278 C   0  0  0  0  0  0  0  0  0  0  0  0
    5.9711    5.4416   26.5228 C   0  0  0  0  0  0  0  0  0  0  0  0
  1  2  1  0
  2  3  1  0
  3  4  1  0
  4  5  1  0
  5  6  1  6
  4  7  1  0
  1  8  2  0
  1  9  1  0
  5  9  1  0
  3 10  1  6
  7 11  1  0
  7 12  1  6
 10 13  1  0
 10 14  2  0
 12 15  1  0
 13 16  1  0
 15 17  1  0
  6 18  1  0
 11 18  1  0
 11 19  1  0
 17 19  1  0
M  END
$$$$
51
     RDKit          3D

 19 21  0  0  0  0  0  0  0  0999 V2000
    9.4190    8.2745   30.7731 C   0  0  0  0  0  0  0  0  0  0  0  0
   10.4078    7.7179   30.0707 O   0  0  0  0  0  0  0  0  0  0  0  0
   10.1025    7.1896   28.9620 C   0  0  1  0  0  0  0  0  0  0  0  0
   11.0205    6.4837   28.0852 C   0  0  1  0  0  0  0  0  0  0  0  0
    8.6773    6.8927   28.7343 C   0  0  1  0  0  0  0  0  0  0  0  0
   12.4067    6.6102   28.2861 O   0  0  0  0  0  0  0  0  0  0  0  0
    8.1019    8.1327   30.4810 C   0  0  0  0  0  0  0  0  0  0  0  0
    7.8489    7.4927   29.4188 C   0  0  0  0  0  0  0  0  0  0  0  0
   10.5885    5.3010   27.5193 C   0  0  2  0  0  0  0  0  0  0  0  0
   12.9216    5.7841   27.1839 C   0  0  0  0  0  0  0  0  0  0  0  0
    8.3419    5.9835   27.5765 C   0  0  1  0  0  0  0  0  0  0  0  0
   11.7090    4.6350   26.7351 C   0  0  2  0  0  0  0  0  0  0  0  0
   11.5166    4.6537   25.3495 O   0  0  0  0  0  0  0  0  0  0  0  0
    9.2828    5.1753   27.1406 C   0  0  0  0  0  0  0  0  0  0  0  0
    6.9488    5.8170   27.3234 O   0  0  0  0  0  0  0  0  0  0  0  0
   11.0586    3.3886   24.7623 C   0  0  0  0  0  0  0  0  0  0  0  0
    6.6350    5.3303   26.3248 C   0  0  0  0  0  0  0  0  0  0  0  0
    5.1947    5.1512   26.0917 C   0  0  0  0  0  0  0  0  0  0  0  0
    7.3314    5.4037   25.2052 O   0  0  0  0  0  0  0  0  0  0  0  0
  1  2  1  0
  3  2  1  1
  3  4  1  0
  3  5  1  0
  4  6  1  1
  1  7  1  0
  5  8  1  6
  7  8  1  0
  4  9  1  0
  6 10  1  0
  5 11  1  0
  9 12  1  0
 10 12  1  0
 12 13  1  6
  9 14  1  6
 11 14  1  0
 11 15  1  1
 13 16  1  0
 15 17  1  0
 17 18  1  0
 17 19  2  0
M  END
$$$$
52
     RDKit          3D

 19 22  0  0  0  0  0  0  0  0999 V2000
    9.8581    7.9078   30.6039 C   0  0  0  0  0  0  0  0  0  0  0  0
    8.5522    7.8503   30.3030 C   0  0  0  0  0  0  0  0  0  0  0  0
   10.6685    7.5469   29.6445 N   0  0  0  0  0  0  0  0  0  0  0  0
    8.1354    7.3020   29.0896 C   0  0  0  0  0  0  0  0  0  0  0  0
    9.0311    6.8216   28.1900 C   0  0  2  0  0  0  0  0  0  0  0  0
   10.3973    7.0110   28.5164 C   0  0  0  0  0  0  0  0  0  0  0  0
   11.5400    6.6169   27.5587 N   0  0  0  0  0  0  0  0  0  0  0  0
    8.7737    6.2337   26.8008 C   0  0  2  0  0  0  0  0  0  0  0  0
    9.8768    5.8947   26.0215 C   0  0  2  0  0  0  0  0  0  0  0  0
    7.5706    6.1355   26.1010 N   0  0  0  0  0  0  0  0  0  0  0  0
    9.5095    5.3136   24.7846 C   0  0  1  0  0  0  0  0  0  0  0  0
   10.3195    4.7605   23.8349 C   0  0  0  0  0  0  0  0  0  0  0  0
    7.9944    5.4197   24.9183 C   0  0  0  0  0  0  0  0  0  0  0  0
   11.6370    4.6043   24.1348 C   0  0  0  0  0  0  0  0  0  0  0  0
   11.1566    5.9855   26.4612 C   0  0  1  0  0  0  0  0  0  0  0  0
   12.3390    5.4773   25.5089 C   0  0  0  0  0  0  0  0  0  0  0  0
    6.2311    6.3192   26.4513 C   0  0  0  0  0  0  0  0  0  0  0  0
    5.8525    6.8181   27.5158 O   0  0  0  0  0  0  0  0  0  0  0  0
    5.2823    5.4595   25.6020 C   0  0  0  0  0  0  0  0  0  0  0  0
  1  2  1  0
  1  3  1  0
  2  4  1  0
  5  4  1  6
  3  6  1  0
  5  6  1  0
  6  7  1  0
  5  8  1  0
  8  9  1  0
  8 10  1  6
  9 11  1  1
 11 12  1  1
 10 13  1  0
 11 13  1  0
 12 14  1  0
  7 15  1  0
  9 15  1  0
 14 16  1  0
 15 16  1  6
 10 17  1  0
 17 18  2  0
 17 19  1  0
M  END
$$$$
53
     RDKit          3D

 19 21  0  0  0  0  0  0  0  0999 V2000
    9.8581    7.9078   30.6039 C   0  0  0  0  0  0  0  0  0  0  0  0
    8.5522    7.8503   30.3030 C   0  0  0  0  0  0  0  0  0  0  0  0
   10.6685    7.5469   29.6445 N   0  0  0  0  0  0  0  0  0  0  0  0
    8.1354    7.3020   29.0896 C   0  0  0  0  0  0  0  0  0  0  0  0
    9.0311    6.8216   28.1900 C   0  0  2  0  0  0  0  0  0  0  0  0
   10.3932    7.0346   28.5106 C   0  0  0  0  0  0  0  0  0  0  0  0
    8.6880    6.2240   26.8401 C   0  0  2  0  0  0  0  0  0  0  0  0
    9.7746    5.9156   26.0650 C   0  0  0  0  0  0  0  0  0  0  0  0
    7.6291    6.4332   26.0089 N   0  0  0  0  0  0  0  0  0  0  0  0
    7.9253    5.8944   24.8125 C   0  0  0  0  0  0  0  0  0  0  0  0
   11.4699    6.6661   27.6017 N   0  0  0  0  0  0  0  0  0  0  0  0
    9.2881    5.5152   24.8601 N   0  0  0  0  0  0  0  0  0  0  0  0
   11.2011    6.0184   26.4200 C   0  0  0  0  0  0  0  0  0  0  0  0
    9.8255    4.8554   23.7379 C   0  0  0  0  0  0  0  0  0  0  0  0
    9.9238    3.5139   23.8779 C   0  0  0  0  0  0  0  0  0  0  0  0
    7.0656    5.7150   23.8274 C   0  0  0  0  0  0  0  0  0  0  0  0
   11.2002    3.0905   24.5800 C   0  0  0  0  0  0  0  0  0  0  0  0
   12.2102    5.5842   25.6509 O   0  0  0  0  0  0  0  0  0  0  0  0
   11.3477    1.7078   24.5642 O   0  0  0  0  0  0  0  0  0  0  0  0
  1  2  1  0
  1  3  1  0
  2  4  1  0
  5  4  1  6
  3  6  1  0
  5  6  1  0
  5  7  1  0
  7  8  1  0
  7  9  1  6
  9 10  1  0
  6 11  1  0
  8 12  1  0
 10 12  1  0
  8 13  1  0
 11 13  1  0
 12 14  1  0
 14 15  1  0
 10 16  1  0
 15 17  1  0
 13 18  2  0
 17 19  1  0
M  END
$$$$
54
     RDKit          3D

 19 21  0  0  0  0  0  0  0  0999 V2000
   11.0303    6.7668   30.0234 O   0  0  0  0  0  0  0  0  0  0  0  0
   10.2471    7.2650   29.6195 C   0  0  0  0  0  0  0  0  0  0  0  0
    9.6627    7.1246   28.3131 N   0  0  0  0  0  0  0  0  0  0  0  0
    8.5554    7.6050   27.8841 C   0  0  0  0  0  0  0  0  0  0  0  0
    9.3600    8.2485   30.3781 C   0  0  0  0  0  0  0  0  0  0  0  0
   10.5228    6.2363   27.3699 C   0  0  2  0  0  0  0  0  0  0  0  0
    8.1676    7.1456   26.5306 C   0  0  0  0  0  0  0  0  0  0  0  0
    8.2267    8.8078   29.8592 C   0  0  1  0  0  0  0  0  0  0  0  0
    7.7565    8.4399   28.5564 C   0  0  0  0  0  0  0  0  0  0  0  0
    9.5968    6.2273   26.2433 C   0  0  2  0  0  0  0  0  0  0  0  0
    7.4546    9.6743   30.6843 C   0  0  0  0  0  0  0  0  0  0  0  0
    9.0520    4.9943   25.6923 C   0  0  0  0  0  0  0  0  0  0  0  0
   10.6080    6.9001   25.2895 O   0  0  0  0  0  0  0  0  0  0  0  0
    8.2823    5.0830   24.5758 O   0  0  0  0  0  0  0  0  0  0  0  0
   10.7591    5.0433   28.1974 C   0  0  0  0  0  0  0  0  0  0  0  0
    9.5439    3.7374   26.0070 C   0  0  0  0  0  0  0  0  0  0  0  0
    6.8817    5.0534   24.8242 C   0  0  0  0  0  0  0  0  0  0  0  0
   10.4316    3.6197   27.2975 C   0  0  0  0  0  0  0  0  0  0  0  0
    9.3021    2.4903   25.2878 O   0  0  0  0  0  0  0  0  0  0  0  0
  1  2  2  0
  2  3  1  0
  3  4  1  0
  2  5  1  0
  3  6  1  0
  4  7  1  0
  5  8  1  0
  4  9  1  0
  8  9  1  0
  6 10  1  0
  7 10  1  0
  8 11  1  1
 10 12  1  0
 10 13  1  6
 12 14  1  0
  6 15  1  1
 12 16  2  0
 14 17  1  0
 15 18  1  0
 16 18  1  0
 16 19  1  0
M  END
$$$$
55
     RDKit          3D

 19 21  0  0  0  0  0  0  0  0999 V2000
    8.2629    8.0336   30.6915 C   0  0  0  0  0  0  0  0  0  0  0  0
    7.5529    7.2014   30.0107 C   0  0  0  0  0  0  0  0  0  0  0  0
    9.4804    8.3652   30.0608 C   0  0  0  0  0  0  0  0  0  0  0  0
   10.0218    7.4533   29.2798 C   0  0  0  0  0  0  0  0  0  0  0  0
    8.1214    6.4055   29.1347 C   0  0  0  0  0  0  0  0  0  0  0  0
    9.3261    6.5203   28.6955 C   0  0  0  0  0  0  0  0  0  0  0  0
    9.9015    5.5795   27.5572 C   0  0  0  0  0  0  0  0  0  0  0  0
    9.9369    6.0767   26.3954 N   0  0  0  0  0  0  0  0  0  0  0  0
   10.4224    5.1953   25.3547 C   0  0  1  0  0  0  0  0  0  0  0  0
   10.6404    5.5476   24.0753 C   0  0  1  0  0  0  0  0  0  0  0  0
   10.2889    4.3998   27.8513 C   0  0  1  0  0  0  0  0  0  0  0  0
   10.4161    6.7902   23.5576 C   0  0  0  0  0  0  0  0  0  0  0  0
   10.6178    6.9838   22.1983 O   0  0  0  0  0  0  0  0  0  0  0  0
   10.3305    3.5874   28.9048 C   0  0  0  0  0  0  0  0  0  0  0  0
   10.7744    3.8948   25.8472 C   0  0  1  0  0  0  0  0  0  0  0  0
    9.7887    7.7661   24.2058 O   0  0  0  0  0  0  0  0  0  0  0  0
   11.1198    2.7825   25.3546 C   0  0  0  0  0  0  0  0  0  0  0  0
   11.2247    4.4811   23.3307 C   0  0  0  0  0  0  0  0  0  0  0  0
   11.2415    3.1358   23.9361 C   0  0  0  0  0  0  0  0  0  0  0  0
  1  2  1  0
  1  3  1  0
  3  4  1  0
  2  5  1  0
  4  6  1  0
  5  6  1  0
  6  7  1  0
  7  8  1  0
  9  8  1  1
  9 10  1  0
  7 11  1  0
 10 12  1  1
 12 13  2  0
 11 14  1  6
  9 15  1  0
 11 15  1  0
 12 16  1  0
 15 17  1  6
 10 18  1  0
 17 19  1  0
 18 19  1  0
M  END
$$$$
56
     RDKit          3D

 20 21  0  0  0  0  0  0  0  0999 V2000
   11.0303    6.7668   30.0234 O   0  0  0  0  0  0  0  0  0  0  0  0
   10.2471    7.2650   29.6195 C   0  0  0  0  0  0  0  0  0  0  0  0
    9.5258    8.1610   30.4953 C   0  0  0  0  0  0  0  0  0  0  0  0
    9.4445    7.1130   28.4363 N   0  0  0  0  0  0  0  0  0  0  0  0
    8.2058    8.5253   30.0041 C   0  0  1  0  0  0  0  0  0  0  0  0
    7.2348    9.4337   30.4161 C   0  0  0  0  0  0  0  0  0  0  0  0
    7.2694    9.8273   31.5660 O   0  0  0  0  0  0  0  0  0  0  0  0
    6.6487   10.3463   29.5882 O   0  0  0  0  0  0  0  0  0  0  0  0
    8.1882    7.8674   28.5710 C   0  0  0  0  0  0  0  0  0  0  0  0
    9.8888    6.4823   27.2544 C   0  0  0  0  0  0  0  0  0  0  0  0
   10.4649    5.3365   27.2134 C   0  0  2  0  0  0  0  0  0  0  0  0
    9.6675    7.1601   26.0152 C   0  0  0  0  0  0  0  0  0  0  0  0
   10.7622    4.4747   28.5505 C   0  0  0  0  0  0  0  0  0  0  0  0
   10.0580    6.5141   24.9767 C   0  0  1  0  0  0  0  0  0  0  0  0
    9.8489    7.0725   23.5461 C   0  0  0  0  0  0  0  0  0  0  0  0
   10.9350    5.3358   24.9026 C   0  0  2  0  0  0  0  0  0  0  0  0
   11.3396    4.7722   26.2480 C   0  0  1  0  0  0  0  0  0  0  0  0
   12.4605    4.0306   26.2883 O   0  0  0  0  0  0  0  0  0  0  0  0
   11.5386    4.7967   23.8054 O   0  0  0  0  0  0  0  0  0  0  0  0
   10.5879    3.9161   23.3076 C   0  0  0  0  0  0  0  0  0  0  0  0
  1  2  2  0
  2  3  1  0
  2  4  1  0
  3  5  1  0
  5  6  1  6
  6  7  1  0
  6  8  2  0
  4  9  1  0
  5  9  1  0
  4 10  1  0
 10 11  1  0
 10 12  1  0
 11 13  1  1
 12 14  1  0
 14 15  1  6
 14 16  1  0
 11 17  1  0
 16 17  1  0
 17 18  1  1
 16 19  1  6
 19 20  1  0
M  END
$$$$
57
     RDKit          3D

 20 22  0  0  0  0  0  0  0  0999 V2000
    9.8581    7.9078   30.6039 C   0  0  0  0  0  0  0  0  0  0  0  0
    8.5522    7.8503   30.3030 C   0  0  2  0  0  0  0  0  0  0  0  0
   10.8417    7.4967   29.7624 N   0  0  0  0  0  0  0  0  0  0  0  0
   10.3715    6.9188   28.6604 C   0  0  0  0  0  0  0  0  0  0  0  0
    7.5714    8.3475   31.2458 O   0  0  0  0  0  0  0  0  0  0  0  0
    8.1925    7.1783   29.1548 C   0  0  0  0  0  0  0  0  0  0  0  0
    6.7380    6.9560   28.8532 O   0  0  0  0  0  0  0  0  0  0  0  0
   11.4352    6.4957   27.7352 N   0  0  0  0  0  0  0  0  0  0  0  0
    9.1142    6.7025   28.3052 C   0  0  0  0  0  0  0  0  0  0  0  0
    9.0470    5.9309   27.0712 C   0  0  1  0  0  0  0  0  0  0  0  0
   10.6606    5.8461   26.6763 C   0  0  2  0  0  0  0  0  0  0  0  0
    6.2771    5.7605   28.9127 C   0  0  0  0  0  0  0  0  0  0  0  0
    8.4426    4.6330   27.1300 O   0  0  0  0  0  0  0  0  0  0  0  0
   11.1597    4.5270   26.4881 C   0  0  1  0  0  0  0  0  0  0  0  0
   10.1727    3.6072   25.8787 C   0  0  1  0  0  0  0  0  0  0  0  0
   10.7601    2.3913   25.3433 O   0  0  0  0  0  0  0  0  0  0  0  0
    9.1989    3.5667   26.7764 C   0  0  1  0  0  0  0  0  0  0  0  0
   12.3651    4.4757   25.6393 O   0  0  0  0  0  0  0  0  0  0  0  0
    9.5229    2.8002   28.0550 C   0  0  0  0  0  0  0  0  0  0  0  0
    8.6056    2.8287   29.0611 O   0  0  0  0  0  0  0  0  0  0  0  0
  1  2  1  0
  1  3  1  0
  3  4  1  0
  2  5  1  1
  2  6  1  0
  6  7  1  0
  4  8  1  0
  4  9  1  0
  6  9  1  0
  9 10  1  0
 11  8  1  1
 10 11  1  0
  7 12  1  0
 10 13  1  1
 11 14  1  0
 14 15  1  0
 15 16  1  1
 13 17  1  0
 15 17  1  0
 14 18  1  6
 17 19  1  1
 19 20  1  0
M  END
$$$$
58
     RDKit          3D

 20 22  0  0  0  0  0  0  0  0999 V2000
    9.8581    7.9078   30.6039 C   0  0  0  0  0  0  0  0  0  0  0  0
    8.5522    7.8503   30.3030 C   0  0  2  0  0  0  0  0  0  0  0  0
   10.6685    7.5469   29.6445 C   0  0  0  0  0  0  0  0  0  0  0  0
    7.5037    8.1859   31.2852 O   0  0  0  0  0  0  0  0  0  0  0  0
    8.0490    7.3682   29.0367 C   0  0  0  0  0  0  0  0  0  0  0  0
   10.2347    7.0082   28.4161 C   0  0  2  0  0  0  0  0  0  0  0  0
    8.8622    6.9205   28.1465 C   0  0  0  0  0  0  0  0  0  0  0  0
    8.5865    6.3046   26.7994 C   0  0  0  0  0  0  0  0  0  0  0  0
    6.1914    7.6413   30.9990 C   0  0  0  0  0  0  0  0  0  0  0  0
   10.9422    6.3609   27.3347 C   0  0  1  0  0  0  0  0  0  0  0  0
    9.9494    5.9934   26.3494 N   0  0  0  0  0  0  0  0  0  0  0  0
   12.3334    6.2465   27.1850 N   0  0  0  0  0  0  0  0  0  0  0  0
   10.3999    5.4499   25.0455 C   0  0  1  0  0  0  0  0  0  0  0  0
   11.5612    4.6620   25.1718 O   0  0  0  0  0  0  0  0  0  0  0  0
    9.3136    4.6253   24.4321 C   0  0  0  0  0  0  0  0  0  0  0  0
   11.3840    3.4183   24.4379 C   0  0  0  0  0  0  0  0  0  0  0  0
    8.4535    5.2155   23.8441 O   0  0  0  0  0  0  0  0  0  0  0  0
    9.8877    3.3292   24.2261 C   0  0  0  0  0  0  0  0  0  0  0  0
   12.2188    3.6057   23.3025 F   0  0  0  0  0  0  0  0  0  0  0  0
   11.8724    2.2739   25.1664 F   0  0  0  0  0  0  0  0  0  0  0  0
  1  2  1  0
  1  3  1  0
  2  4  1  1
  2  5  1  0
  6  3  1  1
  5  7  1  0
  6  7  1  0
  7  8  1  0
  4  9  1  0
  6 10  1  0
  8 11  1  0
 10 11  1  0
 10 12  1  6
 13 11  1  1
 13 14  1  0
 13 15  1  0
 14 16  1  0
 15 17  2  0
 15 18  1  0
 16 18  1  0
 16 19  1  0
 16 20  1  0
M  END
$$$$
59
     RDKit          3D

 20 22  0  0  0  0  0  0  0  0999 V2000
    9.8581    7.9078   30.6039 C   0  0  0  0  0  0  0  0  0  0  0  0
   10.6407    7.4504   29.6678 O   0  0  0  0  0  0  0  0  0  0  0  0
   10.1410    6.7846   28.6302 C   0  0  1  0  0  0  0  0  0  0  0  0
    8.8131    6.7329   28.5682 C   0  0  0  0  0  0  0  0  0  0  0  0
    8.0326    7.2627   29.5693 C   0  0  2  0  0  0  0  0  0  0  0  0
    6.5156    7.0834   29.4039 C   0  0  0  0  0  0  0  0  0  0  0  0
    8.1300    6.0265   27.4002 C   0  0  1  0  0  0  0  0  0  0  0  0
   10.4924    8.6124   31.6385 O   0  0  0  0  0  0  0  0  0  0  0  0
    8.5513    7.9914   30.6456 C   0  0  0  0  0  0  0  0  0  0  0  0
   11.2009    6.4028   27.7010 C   0  0  0  0  0  0  0  0  0  0  0  0
    6.7767    5.9735   27.4223 C   0  0  0  0  0  0  0  0  0  0  0  0
    8.5743    5.4798   26.0985 C   0  0  0  0  0  0  0  0  0  0  0  0
   11.7464    7.2770   26.8776 N   0  0  0  0  0  0  0  0  0  0  0  0
   11.8661    5.2708   28.0788 C   0  0  0  0  0  0  0  0  0  0  0  0
    7.7832    5.1296   25.2676 C   0  0  1  0  0  0  0  0  0  0  0  0
   11.1633    8.3367   26.2622 O   0  0  0  0  0  0  0  0  0  0  0  0
    5.9336    6.4890   28.4769 C   0  0  0  0  0  0  0  0  0  0  0  0
    8.3824    4.6317   23.9410 F   0  0  0  0  0  0  0  0  0  0  0  0
    6.0284    5.3959   26.3516 C   0  0  0  0  0  0  0  0  0  0  0  0
    6.4987    4.9684   25.2779 C   0  0  0  0  0  0  0  0  0  0  0  0
  1  2  1  0
  2  3  1  0
  3  4  1  0
  4  5  1  0
  5  6  1  6
  4  7  1  0
  1  8  2  0
  1  9  1  0
  5  9  1  0
  3 10  1  6
  7 11  1  0
  7 12  1  6
 10 13  1  0
 10 14  2  0
 12 15  1  0
 13 16  1  0
  6 17  1  0
 11 17  1  0
 15 18  1  1
 11 19  1  0
 15 20  1  0
 19 20  1  0
M  END
$$$$
6
     RDKit          3D

 14 16  0  0  0  0  0  0  0  0999 V2000
    9.8581    7.9078   30.6039 C   0  0  0  0  0  0  0  0  0  0  0  0
    8.5522    7.8503   30.3030 C   0  0  0  0  0  0  0  0  0  0  0  0
    8.2434    7.1709   29.0410 C   0  0  0  0  0  0  0  0  0  0  0  0
   10.7711    7.3930   29.6283 N   0  0  0  0  0  0  0  0  0  0  0  0
   10.2611    6.7724   28.6571 C   0  0  1  0  0  0  0  0  0  0  0  0
    9.1239    6.7046   28.4054 C   0  0  0  0  0  0  0  0  0  0  0  0
   11.5313    6.2502   27.7612 C   0  0  0  0  0  0  0  0  0  0  0  0
    9.0748    5.8136   27.1007 C   0  0  0  0  0  0  0  0  0  0  0  0
   10.7109    5.5910   26.7686 C   0  0  1  0  0  0  0  0  0  0  0  0
   11.0910    4.8070   25.4724 C   0  0  0  0  0  0  0  0  0  0  0  0
   11.0140    5.3566   24.3532 C   0  0  0  0  0  0  0  0  0  0  0  0
   11.3302    3.3211   25.6506 C   0  0  0  0  0  0  0  0  0  0  0  0
   11.4258    4.3923   23.2510 C   0  0  0  0  0  0  0  0  0  0  0  0
   11.0882    3.0138   23.8433 C   0  0  0  0  0  0  0  0  0  0  0  0
  1  2  1  0
  2  3  1  0
  1  4  1  0
  4  5  1  0
  3  6  1  0
  5  6  1  0
  5  7  1  6
  6  8  1  0
  7  9  1  0
  8  9  1  0
  9 10  1  6
 10 11  2  0
 10 12  1  0
 11 13  1  0
 12 14  1  0
 13 14  1  0
M  END
$$$$
60
     RDKit          3D

 20 23  0  0  0  0  0  0  0  0999 V2000
    9.8581    7.9078   30.6039 C   0  0  0  0  0  0  0  0  0  0  0  0
    8.5522    7.8503   30.3030 C   0  0  0  0  0  0  0  0  0  0  0  0
   10.6685    7.5469   29.6445 N   0  0  0  0  0  0  0  0  0  0  0  0
    8.1354    7.3020   29.0896 C   0  0  0  0  0  0  0  0  0  0  0  0
    9.0311    6.8216   28.1900 C   0  0  2  0  0  0  0  0  0  0  0  0
   10.3973    7.0110   28.5164 C   0  0  0  0  0  0  0  0  0  0  0  0
   11.5400    6.6169   27.5587 N   0  0  0  0  0  0  0  0  0  0  0  0
    8.7737    6.2337   26.8008 C   0  0  2  0  0  0  0  0  0  0  0  0
    9.8768    5.8947   26.0215 C   0  0  2  0  0  0  0  0  0  0  0  0
    7.5706    6.1355   26.1010 N   0  0  0  0  0  0  0  0  0  0  0  0
    9.5095    5.3136   24.7846 C   0  0  1  0  0  0  0  0  0  0  0  0
   10.3195    4.7605   23.8349 C   0  0  0  0  0  0  0  0  0  0  0  0
    7.9944    5.4197   24.9183 C   0  0  2  0  0  0  0  0  0  0  0  0
   11.1498    3.8736   24.1113 C   0  0  2  0  0  0  0  0  0  0  0  0
   11.1838    5.6208   26.7326 C   0  0  1  0  0  0  0  0  0  0  0  0
    6.9957    5.1650   24.0525 O   0  0  0  0  0  0  0  0  0  0  0  0
    6.7375    6.2580   23.2987 C   0  0  0  0  0  0  0  0  0  0  0  0
   12.0725    3.9286   25.1100 C   0  0  0  0  0  0  0  0  0  0  0  0
   11.3209    2.7448   23.2909 C   0  0  0  0  0  0  0  0  0  0  0  0
   12.2802    4.8785   26.2007 C   0  0  0  0  0  0  0  0  0  0  0  0
  1  2  1  0
  1  3  1  0
  2  4  1  0
  5  4  1  6
  3  6  1  0
  5  6  1  0
  6  7  1  0
  5  8  1  0
  8  9  1  0
  8 10  1  6
  9 11  1  0
 11 12  1  1
 10 13  1  0
 11 13  1  0
 12 14  1  0
  7 15  1  0
  9 15  1  1
 13 16  1  6
 16 17  1  0
 14 18  1  0
 14 19  1  6
 15 20  1  6
 18 20  1  0
M  END
$$$$
61
     RDKit          3D

 20 21  0  0  0  0  0  0  0  0999 V2000
   11.0303    6.7668   30.0234 O   0  0  0  0  0  0  0  0  0  0  0  0
   10.2471    7.2650   29.6195 C   0  0  0  0  0  0  0  0  0  0  0  0
    9.5258    8.1610   30.4953 C   0  0  0  0  0  0  0  0  0  0  0  0
    9.4445    7.1130   28.4363 N   0  0  0  0  0  0  0  0  0  0  0  0
    8.2058    8.5253   30.0041 C   0  0  1  0  0  0  0  0  0  0  0  0
    7.2348    9.4337   30.4161 C   0  0  0  0  0  0  0  0  0  0  0  0
    7.2694    9.8273   31.5660 O   0  0  0  0  0  0  0  0  0  0  0  0
    6.6487   10.3463   29.5882 O   0  0  0  0  0  0  0  0  0  0  0  0
    8.1882    7.8674   28.5710 C   0  0  0  0  0  0  0  0  0  0  0  0
    9.8888    6.4823   27.2544 C   0  0  0  0  0  0  0  0  0  0  0  0
   10.4649    5.3365   27.2134 C   0  0  2  0  0  0  0  0  0  0  0  0
    9.6675    7.1601   26.0152 C   0  0  0  0  0  0  0  0  0  0  0  0
   10.7622    4.4747   28.5505 C   0  0  0  0  0  0  0  0  0  0  0  0
   10.0580    6.5141   24.9767 C   0  0  1  0  0  0  0  0  0  0  0  0
    9.8489    7.0725   23.5461 C   0  0  0  0  0  0  0  0  0  0  0  0
   10.9350    5.3358   24.9026 C   0  0  0  0  0  0  0  0  0  0  0  0
   11.3396    4.7722   26.2480 C   0  0  0  0  0  0  0  0  0  0  0  0
   10.5322    7.1977   22.6748 O   0  0  0  0  0  0  0  0  0  0  0  0
    8.6388    7.8208   23.5280 N   0  0  0  0  0  0  0  0  0  0  0  0
    8.3089    8.5103   22.2087 C   0  0  0  0  0  0  0  0  0  0  0  0
  1  2  2  0
  2  3  1  0
  2  4  1  0
  3  5  1  0
  5  6  1  6
  6  7  1  0
  6  8  2  0
  4  9  1  0
  5  9  1  0
  4 10  1  0
 10 11  1  0
 10 12  1  0
 11 13  1  1
 12 14  1  0
 14 15  1  6
 14 16  1  0
 11 17  1  0
 16 17  1  0
 15 18  2  0
 15 19  1  0
 19 20  1  0
M  END
$$$$
62
     RDKit          3D

 20 23  0  0  0  0  0  0  0  0999 V2000
    9.3684    8.5221   30.9427 C   0  0  0  0  0  0  0  0  0  0  0  0
    8.1654    8.3991   30.3867 C   0  0  0  0  0  0  0  0  0  0  0  0
    8.0629    7.6557   29.1734 C   0  0  2  0  0  0  0  0  0  0  0  0
    6.7708    7.4374   28.5890 O   0  0  0  0  0  0  0  0  0  0  0  0
    9.0950    7.0323   28.4845 C   0  0  0  0  0  0  0  0  0  0  0  0
   10.3918    7.1894   29.0870 C   0  0  2  0  0  0  0  0  0  0  0  0
   11.5107    6.5536   28.5062 N   0  0  0  0  0  0  0  0  0  0  0  0
   10.5170    7.8020   30.3634 N   0  0  0  0  0  0  0  0  0  0  0  0
    8.9681    6.3038   27.2489 C   0  0  2  0  0  0  0  0  0  0  0  0
    6.5227    6.3343   27.9368 C   0  0  0  0  0  0  0  0  0  0  0  0
    7.6018    6.0112   26.9502 C   0  0  2  0  0  0  0  0  0  0  0  0
   11.3820    6.0598   27.2288 C   0  0  2  0  0  0  0  0  0  0  0  0
   10.0661    5.8249   26.6563 C   0  0  2  0  0  0  0  0  0  0  0  0
    7.3756    4.8873   26.0825 C   0  0  1  0  0  0  0  0  0  0  0  0
    6.0526    4.7041   25.6280 F   0  0  0  0  0  0  0  0  0  0  0  0
   12.6334    5.6951   26.4111 C   0  0  0  0  0  0  0  0  0  0  0  0
    9.9126    5.1250   25.3952 C   0  0  0  0  0  0  0  0  0  0  0  0
    8.4158    4.9929   24.9652 C   0  0  0  0  0  0  0  0  0  0  0  0
   13.7369    6.1249   26.9506 O   0  0  0  0  0  0  0  0  0  0  0  0
   12.4605    4.9014   25.4743 O   0  0  0  0  0  0  0  0  0  0  0  0
  1  2  1  0
  3  2  1  1
  3  4  1  0
  3  5  1  0
  5  6  1  0
  6  7  1  1
  1  8  1  0
  6  8  1  0
  9  5  1  1
  4 10  1  0
  9 11  1  0
 11 10  1  1
  7 12  1  0
  9 13  1  0
 12 13  1  0
 11 14  1  0
 14 15  1  6
 12 16  1  1
 13 17  1  6
 14 18  1  0
 17 18  1  0
 16 19  1  0
 16 20  2  0
M  END
$$$$
63
     RDKit          3D

 20 23  0  0  0  0  0  0  0  0999 V2000
   12.0202    2.9861   24.6830 O   0  0  0  0  0  0  0  0  0  0  0  0
   11.2661    3.9801   24.8427 C   0  0  0  0  0  0  0  0  0  0  0  0
   10.5155    4.4162   23.8512 C   0  0  0  0  0  0  0  0  0  0  0  0
   10.9378    4.3500   26.1759 N   0  0  0  0  0  0  0  0  0  0  0  0
    9.5732    5.4443   24.0623 C   0  0  0  0  0  0  0  0  0  0  0  0
    9.3128    5.9563   25.3539 N   0  0  0  0  0  0  0  0  0  0  0  0
    8.4225    7.0062   25.6076 C   0  0  0  0  0  0  0  0  0  0  0  0
   10.1084    5.4218   26.3831 C   0  0  1  0  0  0  0  0  0  0  0  0
    7.9408    7.6119   24.6508 O   0  0  0  0  0  0  0  0  0  0  0  0
    8.2486    7.2349   26.9529 C   0  0  1  0  0  0  0  0  0  0  0  0
    9.0204    6.7190   28.0043 C   0  0  2  0  0  0  0  0  0  0  0  0
    9.6831    5.8123   27.6247 N   0  0  0  0  0  0  0  0  0  0  0  0
    8.6452    7.1561   29.3054 C   0  0  0  0  0  0  0  0  0  0  0  0
    7.3190    8.3709   27.3125 C   0  0  0  0  0  0  0  0  0  0  0  0
    7.0919    8.5434   28.5243 C   0  0  0  0  0  0  0  0  0  0  0  0
   10.9943    5.2257   28.4265 C   0  0  0  0  0  0  0  0  0  0  0  0
   11.5464    4.1345   27.5000 C   0  0  0  0  0  0  0  0  0  0  0  0
    7.8075    8.0396   29.5287 C   0  0  1  0  0  0  0  0  0  0  0  0
    7.5129    8.4477   30.9756 O   0  0  0  0  0  0  0  0  0  0  0  0
    7.1448    9.7298   30.9283 C   0  0  0  0  0  0  0  0  0  0  0  0
  1  2  2  0
  2  3  1  0
  2  4  1  0
  3  5  1  0
  5  6  1  0
  6  7  1  0
  8  4  1  1
  6  8  1  0
  7  9  2  0
  7 10  1  0
 10 11  1  0
  8 12  1  0
 11 12  1  0
 11 13  1  1
 10 14  1  6
 14 15  1  0
 12 16  1  0
  4 17  1  0
 16 17  1  0
 13 18  1  0
 15 18  1  0
 18 19  1  1
 19 20  1  0
M  END
$$$$
64
     RDKit          3D

 20 22  0  0  0  0  0  0  0  0999 V2000
    9.8581    7.9078   30.6039 C   0  0  0  0  0  0  0  0  0  0  0  0
    8.5522    7.8503   30.3030 C   0  0  0  0  0  0  0  0  0  0  0  0
   10.6685    7.5469   29.6445 N   0  0  0  0  0  0  0  0  0  0  0  0
    8.1354    7.3020   29.0896 C   0  0  0  0  0  0  0  0  0  0  0  0
    9.0311    6.8216   28.1900 C   0  0  2  0  0  0  0  0  0  0  0  0
   10.3973    7.0110   28.5164 C   0  0  0  0  0  0  0  0  0  0  0  0
   11.5400    6.6169   27.5587 N   0  0  0  0  0  0  0  0  0  0  0  0
    8.7737    6.2337   26.8008 C   0  0  2  0  0  0  0  0  0  0  0  0
    9.8768    5.8947   26.0215 C   0  0  2  0  0  0  0  0  0  0  0  0
    7.5706    6.1355   26.1010 N   0  0  0  0  0  0  0  0  0  0  0  0
    6.3127    6.4154   26.7257 C   0  0  0  0  0  0  0  0  0  0  0  0
    5.1888    6.2065   25.8420 C   0  0  0  0  0  0  0  0  0  0  0  0
    7.5797    4.9422   25.3192 C   0  0  0  0  0  0  0  0  0  0  0  0
    4.0010    5.8851   26.5042 O   0  0  0  0  0  0  0  0  0  0  0  0
    9.6661    5.2782   24.7595 C   0  0  1  0  0  0  0  0  0  0  0  0
   11.2334    5.8894   26.4330 C   0  0  0  0  0  0  0  0  0  0  0  0
   12.2821    5.5263   25.6867 O   0  0  0  0  0  0  0  0  0  0  0  0
   10.7666    5.0480   23.8223 O   0  0  0  0  0  0  0  0  0  0  0  0
   11.5495    3.9549   23.9671 C   0  0  0  0  0  0  0  0  0  0  0  0
    8.6210    4.2716   24.7245 C   0  0  0  0  0  0  0  0  0  0  0  0
  1  2  1  0
  1  3  1  0
  2  4  1  0
  5  4  1  6
  3  6  1  0
  5  6  1  0
  6  7  1  0
  5  8  1  0
  8  9  1  0
  8 10  1  6
 10 11  1  0
 11 12  1  0
 10 13  1  0
 12 14  1  0
  9 15  1  0
  7 16  1  0
  9 16  1  1
 16 17  2  0
 15 18  1  1
 18 19  1  0
 13 20  1  0
 15 20  1  0
M  END
$$$$
65
     RDKit          3D

 20 23  0  0  0  0  0  0  0  0999 V2000
    9.8581    7.9078   30.6039 C   0  0  0  0  0  0  0  0  0  0  0  0
    8.5522    7.8503   30.3030 C   0  0  0  0  0  0  0  0  0  0  0  0
   10.6685    7.5469   29.6445 N   0  0  0  0  0  0  0  0  0  0  0  0
    8.1354    7.3020   29.0896 C   0  0  0  0  0  0  0  0  0  0  0  0
    9.0311    6.8216   28.1900 C   0  0  2  0  0  0  0  0  0  0  0  0
   10.3973    7.0110   28.5164 C   0  0  0  0  0  0  0  0  0  0  0  0
   11.5400    6.6169   27.5587 N   0  0  0  0  0  0  0  0  0  0  0  0
    8.7737    6.2337   26.8008 C   0  0  2  0  0  0  0  0  0  0  0  0
    9.8768    5.8947   26.0215 C   0  0  2  0  0  0  0  0  0  0  0  0
    7.5706    6.1355   26.1010 N   0  0  0  0  0  0  0  0  0  0  0  0
    9.5095    5.3136   24.7846 C   0  0  1  0  0  0  0  0  0  0  0  0
   10.3195    4.7605   23.8349 C   0  0  0  0  0  0  0  0  0  0  0  0
    7.9944    5.4197   24.9183 C   0  0  0  0  0  0  0  0  0  0  0  0
   11.6370    4.6043   24.1348 C   0  0  0  0  0  0  0  0  0  0  0  0
   11.1566    5.9855   26.4612 C   0  0  1  0  0  0  0  0  0  0  0  0
   12.3390    5.4773   25.5089 C   0  0  0  0  0  0  0  0  0  0  0  0
    7.0501    5.0128   23.9798 O   0  0  0  0  0  0  0  0  0  0  0  0
    6.2127    6.3599   26.4604 C   0  0  0  0  0  0  0  0  0  0  0  0
    5.3233    5.5118   25.8943 C   0  0  0  0  0  0  0  0  0  0  0  0
    4.5913    6.1046   24.9059 O   0  0  0  0  0  0  0  0  0  0  0  0
  1  2  1  0
  1  3  1  0
  2  4  1  0
  5  4  1  6
  3  6  1  0
  5  6  1  0
  6  7  1  0
  5  8  1  0
  8  9  1  0
  8 10  1  6
  9 11  1  1
 11 12  1  1
 10 13  1  0
 11 13  1  0
 12 14  1  0
  7 15  1  0
  9 15  1  0
 14 16  1  0
 15 16  1  6
 13 17  2  0
 10 18  1  0
 18 19  1  0
 19 20  1  0
M  END
$$$$
66
     RDKit          3D

 20 22  0  0  0  0  0  0  0  0999 V2000
    8.2629    8.0336   30.6915 C   0  0  0  0  0  0  0  0  0  0  0  0
    7.5529    7.2014   30.0107 C   0  0  0  0  0  0  0  0  0  0  0  0
    9.4804    8.3652   30.0608 C   0  0  0  0  0  0  0  0  0  0  0  0
   10.0218    7.4533   29.2798 C   0  0  0  0  0  0  0  0  0  0  0  0
    8.1214    6.4055   29.1347 C   0  0  0  0  0  0  0  0  0  0  0  0
    9.3534    6.5407   28.6988 C   0  0  0  0  0  0  0  0  0  0  0  0
    9.9799    5.5627   27.7646 C   0  0  2  0  0  0  0  0  0  0  0  0
   10.4634    4.3906   28.1556 C   0  0  0  0  0  0  0  0  0  0  0  0
   10.1365    6.0181   26.4330 C   0  0  1  0  0  0  0  0  0  0  0  0
    9.7399    7.3567   26.0004 C   0  0  0  0  0  0  0  0  0  0  0  0
   10.9535    5.1985   25.6673 C   0  0  1  0  0  0  0  0  0  0  0  0
   11.0482    3.5313   27.1883 C   0  0  0  0  0  0  0  0  0  0  0  0
   11.1925    3.9635   25.9978 C   0  0  2  0  0  0  0  0  0  0  0  0
   11.9509    3.1036   25.0514 O   0  0  0  0  0  0  0  0  0  0  0  0
   10.9006    5.9717   24.3267 C   0  0  0  0  0  0  0  0  0  0  0  0
    9.1925    8.2742   26.4088 O   0  0  0  0  0  0  0  0  0  0  0  0
   10.2563    7.2005   24.6190 N   0  0  0  0  0  0  0  0  0  0  0  0
   10.1615    7.9715   23.3884 C   0  0  0  0  0  0  0  0  0  0  0  0
   10.4423    7.4795   22.2861 O   0  0  0  0  0  0  0  0  0  0  0  0
    9.9735    9.3395   23.4387 C   0  0  0  0  0  0  0  0  0  0  0  0
  1  2  1  0
  1  3  1  0
  3  4  1  0
  2  5  1  0
  4  6  1  0
  5  6  1  0
  7  6  1  1
  7  8  1  0
  7  9  1  0
  9 10  1  1
  9 11  1  0
  8 12  1  0
 11 13  1  0
 12 13  1  0
 13 14  1  1
 11 15  1  6
 10 16  2  0
 10 17  1  0
 15 17  1  0
 17 18  1  0
 18 19  2  0
 18 20  1  0
M  END
$$$$
67
     RDKit          3D

 20 22  0  0  0  0  0  0  0  0999 V2000
    9.8581    7.9078   30.6039 C   0  0  0  0  0  0  0  0  0  0  0  0
    8.5522    7.8503   30.3030 C   0  0  0  0  0  0  0  0  0  0  0  0
   10.6685    7.5469   29.6445 N   0  0  0  0  0  0  0  0  0  0  0  0
    8.1354    7.3020   29.0896 C   0  0  0  0  0  0  0  0  0  0  0  0
    9.0311    6.8216   28.1900 C   0  0  0  0  0  0  0  0  0  0  0  0
   10.3973    7.0110   28.5164 C   0  0  0  0  0  0  0  0  0  0  0  0
   11.5400    6.6169   27.5587 N   0  0  0  0  0  0  0  0  0  0  0  0
   11.4282    7.2198   26.4187 C   0  0  0  0  0  0  0  0  0  0  0  0
   12.3165    5.5416   27.8555 C   0  0  0  0  0  0  0  0  0  0  0  0
   11.8656    4.3208   27.3263 O   0  0  0  0  0  0  0  0  0  0  0  0
   12.1532    8.2321   26.1563 O   0  0  0  0  0  0  0  0  0  0  0  0
   11.2757    6.3814   25.0892 C   0  0  2  0  0  0  0  0  0  0  0  0
   11.1424    4.9050   25.3305 C   0  0  1  0  0  0  0  0  0  0  0  0
   10.6000    4.3214   24.0897 C   0  0  0  0  0  0  0  0  0  0  0  0
   11.4697    6.9841   23.9764 O   0  0  0  0  0  0  0  0  0  0  0  0
   11.6292    4.0847   26.1173 C   0  0  2  0  0  0  0  0  0  0  0  0
   11.4222    2.6747   25.7555 C   0  0  2  0  0  0  0  0  0  0  0  0
   11.7296    1.7745   26.6811 F   0  0  0  0  0  0  0  0  0  0  0  0
   11.1888    2.2557   24.6326 C   0  0  0  0  0  0  0  0  0  0  0  0
   10.5986    3.1580   23.6838 C   0  0  0  0  0  0  0  0  0  0  0  0
  1  2  1  0
  1  3  1  0
  2  4  1  0
  4  5  1  0
  3  6  1  0
  5  6  1  0
  6  7  1  0
  7  8  1  0
  7  9  1  0
  9 10  1  0
  8 11  2  0
  8 12  1  0
 12 13  1  0
 13 14  1  6
 12 15  1  6
 16 10  1  1
 13 16  1  0
 16 17  1  0
 17 18  1  6
 17 19  1  0
 14 20  1  0
 19 20  1  0
M  END
$$$$
68
     RDKit          3D

 20 23  0  0  0  0  0  0  0  0999 V2000
    9.8581    7.9078   30.6039 C   0  0  0  0  0  0  0  0  0  0  0  0
    8.5522    7.8503   30.3030 C   0  0  0  0  0  0  0  0  0  0  0  0
    8.2434    7.1709   29.0410 C   0  0  0  0  0  0  0  0  0  0  0  0
   10.7711    7.3930   29.6283 N   0  0  0  0  0  0  0  0  0  0  0  0
   10.2611    6.7724   28.6571 C   0  0  0  0  0  0  0  0  0  0  0  0
    9.1239    6.7046   28.4054 C   0  0  1  0  0  0  0  0  0  0  0  0
    8.9480    5.7697   27.1250 C   0  0  2  0  0  0  0  0  0  0  0  0
   10.2420    5.4362   26.6422 N   0  0  0  0  0  0  0  0  0  0  0  0
   11.1828    6.0982   27.6653 C   0  0  0  0  0  0  0  0  0  0  0  0
    7.9906    5.4472   26.3292 N   0  0  0  0  0  0  0  0  0  0  0  0
   10.2410    4.7474   25.7071 C   0  0  2  0  0  0  0  0  0  0  0  0
    6.5896    5.5628   26.3844 C   0  0  0  0  0  0  0  0  0  0  0  0
   11.3782    4.2328   24.9379 C   0  0  0  0  0  0  0  0  0  0  0  0
    8.8688    4.5814   25.4300 C   0  0  2  0  0  0  0  0  0  0  0  0
    5.9099    4.9331   27.2316 O   0  0  0  0  0  0  0  0  0  0  0  0
    4.6572    5.3447   27.5523 C   0  0  0  0  0  0  0  0  0  0  0  0
    6.2495    6.6791   25.6851 O   0  0  0  0  0  0  0  0  0  0  0  0
   11.1582    3.4532   23.7550 C   0  0  0  0  0  0  0  0  0  0  0  0
    9.8611    3.0839   23.4305 C   0  0  0  0  0  0  0  0  0  0  0  0
    8.8515    3.8582   24.1090 C   0  0  0  0  0  0  0  0  0  0  0  0
  1  2  1  0
  2  3  1  0
  1  4  1  0
  4  5  1  0
  6  3  1  1
  5  6  1  0
  6  7  1  0
  7  8  1  0
  5  9  1  0
  8  9  1  0
  7 10  1  6
  8 11  1  0
 10 12  1  0
 11 13  1  6
 10 14  1  0
 11 14  1  0
 12 15  1  0
 15 16  1  0
 12 17  2  0
 13 18  1  0
 18 19  1  0
 14 20  1  6
 19 20  1  0
M  END
$$$$
69
     RDKit          3D

 20 22  0  0  0  0  0  0  0  0999 V2000
    8.2629    8.0336   30.6915 C   0  0  0  0  0  0  0  0  0  0  0  0
    7.5529    7.2014   30.0107 C   0  0  0  0  0  0  0  0  0  0  0  0
    9.4804    8.3652   30.0608 C   0  0  0  0  0  0  0  0  0  0  0  0
   10.0218    7.4533   29.2798 C   0  0  0  0  0  0  0  0  0  0  0  0
    8.1214    6.4055   29.1347 C   0  0  0  0  0  0  0  0  0  0  0  0
    9.3534    6.5407   28.6988 C   0  0  0  0  0  0  0  0  0  0  0  0
    9.9799    5.5627   27.7646 C   0  0  2  0  0  0  0  0  0  0  0  0
   10.4634    4.3906   28.1556 C   0  0  0  0  0  0  0  0  0  0  0  0
   10.1365    6.0181   26.4330 C   0  0  1  0  0  0  0  0  0  0  0  0
    9.7399    7.3567   26.0004 C   0  0  0  0  0  0  0  0  0  0  0  0
   10.9535    5.1985   25.6673 C   0  0  1  0  0  0  0  0  0  0  0  0
   11.0482    3.5313   27.1883 C   0  0  0  0  0  0  0  0  0  0  0  0
   11.1925    3.9635   25.9978 C   0  0  2  0  0  0  0  0  0  0  0  0
   11.9509    3.1036   25.0514 O   0  0  0  0  0  0  0  0  0  0  0  0
   10.9006    5.9717   24.3267 C   0  0  0  0  0  0  0  0  0  0  0  0
    9.1925    8.2742   26.4088 O   0  0  0  0  0  0  0  0  0  0  0  0
   10.2563    7.2005   24.6190 N   0  0  0  0  0  0  0  0  0  0  0  0
   10.1495    8.2045   23.4955 C   0  0  0  0  0  0  0  0  0  0  0  0
   10.5624    7.7821   22.3578 C   0  0  0  0  0  0  0  0  0  0  0  0
   10.7715    9.4174   23.7176 C   0  0  0  0  0  0  0  0  0  0  0  0
  1  2  1  0
  1  3  1  0
  3  4  1  0
  2  5  1  0
  4  6  1  0
  5  6  1  0
  7  6  1  1
  7  8  1  0
  7  9  1  0
  9 10  1  1
  9 11  1  0
  8 12  1  0
 11 13  1  0
 12 13  1  0
 13 14  1  1
 11 15  1  6
 10 16  2  0
 10 17  1  0
 15 17  1  0
 17 18  1  0
 18 19  1  0
 18 20  1  0
M  END
$$$$
7
     RDKit          3D

 15 16  0  0  0  0  0  0  0  0999 V2000
    8.3364    9.2832   30.6734 C   0  0  0  0  0  0  0  0  0  0  0  0
    9.1267    8.3468   30.1494 C   0  0  0  0  0  0  0  0  0  0  0  0
    7.0620    9.0450   30.7768 O   0  0  0  0  0  0  0  0  0  0  0  0
   10.2977    7.8470   30.7312 O   0  0  0  0  0  0  0  0  0  0  0  0
    9.0132    7.9056   28.7911 N   0  0  0  0  0  0  0  0  0  0  0  0
    9.5285    6.8991   28.2106 C   0  0  0  0  0  0  0  0  0  0  0  0
    8.9555    5.6584   28.3699 C   0  0  0  0  0  0  0  0  0  0  0  0
    9.4642    4.4535   27.6765 C   0  0  2  0  0  0  0  0  0  0  0  0
   10.6735    6.9742   27.3559 C   0  0  0  0  0  0  0  0  0  0  0  0
   10.5858    4.6600   26.8081 C   0  0  2  0  0  0  0  0  0  0  0  0
   11.1760    5.9406   26.6786 C   0  0  0  0  0  0  0  0  0  0  0  0
    8.8114    2.9581   27.7743 S   0  0  0  0  0  0  0  0  0  0  0  0
   12.5358    6.1833   25.6071 Cl  0  0  0  0  0  0  0  0  0  0  0  0
   10.8529    3.3860   26.0494 N   0  0  0  0  0  0  0  0  0  0  0  0
    9.9677    2.3494   26.6194 C   0  0  0  0  0  0  0  0  0  0  0  0
  1  2  1  0
  1  3  1  0
  2  4  2  0
  2  5  1  0
  5  6  1  0
  6  7  1  0
  8  7  1  6
  6  9  1  0
  8 10  1  0
  9 11  1  0
 10 11  1  0
  8 12  1  0
 11 13  1  0
 10 14  1  6
 12 15  1  0
 14 15  1  0
M  END
$$$$
70
     RDKit          3D

 20 24  0  0  0  0  0  0  0  0999 V2000
    9.3684    8.5221   30.9427 C   0  0  0  0  0  0  0  0  0  0  0  0
    8.1654    8.3991   30.3867 C   0  0  0  0  0  0  0  0  0  0  0  0
    8.0629    7.6557   29.1734 C   0  0  2  0  0  0  0  0  0  0  0  0
    6.7708    7.4374   28.5890 O   0  0  0  0  0  0  0  0  0  0  0  0
    9.0950    7.0323   28.4845 C   0  0  0  0  0  0  0  0  0  0  0  0
   10.3918    7.1894   29.0870 C   0  0  2  0  0  0  0  0  0  0  0  0
   11.5107    6.5536   28.5062 N   0  0  0  0  0  0  0  0  0  0  0  0
   10.5170    7.8020   30.3634 N   0  0  0  0  0  0  0  0  0  0  0  0
    8.9681    6.3038   27.2489 C   0  0  2  0  0  0  0  0  0  0  0  0
    6.5227    6.3343   27.9368 C   0  0  0  0  0  0  0  0  0  0  0  0
    7.6018    6.0112   26.9502 C   0  0  2  0  0  0  0  0  0  0  0  0
   11.3820    6.0598   27.2288 C   0  0  2  0  0  0  0  0  0  0  0  0
   10.0661    5.8249   26.6563 C   0  0  2  0  0  0  0  0  0  0  0  0
    7.3756    4.8873   26.0825 C   0  0  1  0  0  0  0  0  0  0  0  0
    6.0526    4.7041   25.6280 F   0  0  0  0  0  0  0  0  0  0  0  0
   12.6334    5.6951   26.4111 C   0  0  0  0  0  0  0  0  0  0  0  0
    9.9126    5.1250   25.3952 C   0  0  1  0  0  0  0  0  0  0  0  0
    8.4158    4.9929   24.9652 C   0  0  0  0  0  0  0  0  0  0  0  0
   12.3392    4.8549   25.2697 C   0  0  0  0  0  0  0  0  0  0  0  0
   11.0337    4.7636   24.5575 C   0  0  0  0  0  0  0  0  0  0  0  0
  1  2  1  0
  3  2  1  1
  3  4  1  0
  3  5  1  0
  5  6  1  0
  6  7  1  1
  1  8  1  0
  6  8  1  0
  9  5  1  1
  4 10  1  0
  9 11  1  0
 11 10  1  1
  7 12  1  0
  9 13  1  0
 13 12  1  6
 11 14  1  0
 14 15  1  6
 12 16  1  1
 13 17  1  0
 14 18  1  0
 17 18  1  6
 16 19  1  0
 17 20  1  0
 19 20  1  0
M  END
$$$$
71
     RDKit          3D

 20 22  0  0  0  0  0  0  0  0999 V2000
    8.2629    8.0336   30.6915 C   0  0  0  0  0  0  0  0  0  0  0  0
    7.5529    7.2014   30.0107 C   0  0  0  0  0  0  0  0  0  0  0  0
    9.4804    8.3652   30.0608 C   0  0  0  0  0  0  0  0  0  0  0  0
   10.0218    7.4533   29.2798 C   0  0  0  0  0  0  0  0  0  0  0  0
    8.1214    6.4055   29.1347 C   0  0  0  0  0  0  0  0  0  0  0  0
    9.3534    6.5407   28.6988 C   0  0  0  0  0  0  0  0  0  0  0  0
    9.9799    5.5627   27.7646 C   0  0  2  0  0  0  0  0  0  0  0  0
   10.4634    4.3906   28.1556 C   0  0  0  0  0  0  0  0  0  0  0  0
   10.1365    6.0181   26.4330 C   0  0  1  0  0  0  0  0  0  0  0  0
    9.7399    7.3567   26.0004 C   0  0  0  0  0  0  0  0  0  0  0  0
   10.9535    5.1985   25.6673 C   0  0  1  0  0  0  0  0  0  0  0  0
   11.0482    3.5313   27.1883 C   0  0  0  0  0  0  0  0  0  0  0  0
   11.1925    3.9635   25.9978 C   0  0  2  0  0  0  0  0  0  0  0  0
   11.9509    3.1036   25.0514 O   0  0  0  0  0  0  0  0  0  0  0  0
   10.9006    5.9717   24.3267 C   0  0  0  0  0  0  0  0  0  0  0  0
    9.1925    8.2742   26.4088 O   0  0  0  0  0  0  0  0  0  0  0  0
   10.2563    7.2005   24.6190 N   0  0  0  0  0  0  0  0  0  0  0  0
   10.1615    7.9715   23.3884 C   0  0  0  0  0  0  0  0  0  0  0  0
   10.3823    9.2135   23.5670 O   0  0  0  0  0  0  0  0  0  0  0  0
    9.7562    7.5302   22.2333 O   0  0  0  0  0  0  0  0  0  0  0  0
  1  2  1  0
  1  3  1  0
  3  4  1  0
  2  5  1  0
  4  6  1  0
  5  6  1  0
  7  6  1  1
  7  8  1  0
  7  9  1  0
  9 10  1  1
  9 11  1  0
  8 12  1  0
 11 13  1  0
 12 13  1  0
 13 14  1  1
 11 15  1  6
 10 16  2  0
 10 17  1  0
 15 17  1  0
 17 18  1  0
 18 19  1  0
 18 20  2  0
M  END
$$$$
72
     RDKit          3D

 20 22  0  0  0  0  0  0  0  0999 V2000
    9.8581    7.9078   30.6039 C   0  0  0  0  0  0  0  0  0  0  0  0
    8.5522    7.8503   30.3030 C   0  0  0  0  0  0  0  0  0  0  0  0
   10.8417    7.4967   29.7624 N   0  0  0  0  0  0  0  0  0  0  0  0
   10.5556    6.9852   28.5868 C   0  0  0  0  0  0  0  0  0  0  0  0
   11.5151    6.4743   27.7005 N   0  0  0  0  0  0  0  0  0  0  0  0
    9.1102    6.9201   28.2335 C   0  0  0  0  0  0  0  0  0  0  0  0
    7.5040    8.3177   31.1835 O   0  0  0  0  0  0  0  0  0  0  0  0
    8.8384    6.3382   26.9016 C   0  0  2  0  0  0  0  0  0  0  0  0
    7.5150    6.2409   26.4884 C   0  0  0  0  0  0  0  0  0  0  0  0
    7.3166    5.6293   25.1770 C   0  0  1  0  0  0  0  0  0  0  0  0
    5.9312    5.4650   24.7750 C   0  0  0  0  0  0  0  0  0  0  0  0
    9.9631    5.8408   26.1813 N   0  0  0  0  0  0  0  0  0  0  0  0
    8.1688    7.3159   29.0442 C   0  0  0  0  0  0  0  0  0  0  0  0
    7.8573    6.1753   24.0062 C   0  0  0  0  0  0  0  0  0  0  0  0
    6.5939    9.0271   30.4662 C   0  0  0  0  0  0  0  0  0  0  0  0
    9.7434    5.2922   24.8701 C   0  0  0  0  0  0  0  0  0  0  0  0
   10.5216    4.3773   24.5543 O   0  0  0  0  0  0  0  0  0  0  0  0
   11.2880    5.8795   26.5697 C   0  0  0  0  0  0  0  0  0  0  0  0
   12.2760    5.5324   25.8395 O   0  0  0  0  0  0  0  0  0  0  0  0
    9.1093    5.6190   23.7310 C   0  0  0  0  0  0  0  0  0  0  0  0
  1  2  1  0
  1  3  1  0
  3  4  1  0
  4  5  1  0
  4  6  1  0
  2  7  1  0
  6  8  1  0
  8  9  1  1
  9 10  1  0
 10 11  1  6
  8 12  1  0
  2 13  1  0
  6 13  1  0
 10 14  1  0
  7 15  1  0
 12 16  1  0
 16 17  2  0
  5 18  1  0
 12 18  1  0
 18 19  2  0
 14 20  1  0
 16 20  1  0
M  END
$$$$
73
     RDKit          3D

 21 24  0  0  0  0  0  0  0  0999 V2000
    9.4190    8.2745   30.7731 C   0  0  0  0  0  0  0  0  0  0  0  0
   10.4078    7.7179   30.0707 O   0  0  0  0  0  0  0  0  0  0  0  0
   10.1025    7.1896   28.9620 C   0  0  1  0  0  0  0  0  0  0  0  0
   11.0205    6.4837   28.0852 C   0  0  1  0  0  0  0  0  0  0  0  0
    8.6773    6.8927   28.7343 C   0  0  1  0  0  0  0  0  0  0  0  0
   12.4067    6.6102   28.2861 O   0  0  0  0  0  0  0  0  0  0  0  0
    8.1019    8.1327   30.4810 C   0  0  0  0  0  0  0  0  0  0  0  0
    7.8489    7.4927   29.4188 C   0  0  0  0  0  0  0  0  0  0  0  0
   10.5885    5.3010   27.5193 C   0  0  2  0  0  0  0  0  0  0  0  0
    8.3841    5.9343   27.6016 C   0  0  0  0  0  0  0  0  0  0  0  0
   11.7000    4.5621   26.7143 O   0  0  0  0  0  0  0  0  0  0  0  0
   11.3020    4.3537   25.4512 C   0  0  0  0  0  0  0  0  0  0  0  0
    9.3259    5.2270   27.0551 C   0  0  0  0  0  0  0  0  0  0  0  0
    6.9452    5.8641   27.0808 C   0  0  0  0  0  0  0  0  0  0  0  0
    9.0524    4.2541   25.9322 C   0  0  2  0  0  0  0  0  0  0  0  0
   10.1170    3.6221   25.2707 C   0  0  0  0  0  0  0  0  0  0  0  0
    6.7000    4.8986   26.1645 C   0  0  2  0  0  0  0  0  0  0  0  0
    7.7210    4.0986   25.5606 C   0  0  0  0  0  0  0  0  0  0  0  0
   12.1584    4.4643   24.5781 O   0  0  0  0  0  0  0  0  0  0  0  0
    5.3874    4.8530   25.7153 O   0  0  0  0  0  0  0  0  0  0  0  0
    4.9483    6.0673   25.0198 C   0  0  0  0  0  0  0  0  0  0  0  0
  1  2  1  0
  3  2  1  1
  3  4  1  0
  3  5  1  0
  4  6  1  1
  1  7  1  0
  5  8  1  6
  7  8  1  0
  4  9  1  0
  5 10  1  0
  9 11  1  6
 11 12  1  0
  9 13  1  0
 10 13  1  0
 10 14  1  0
 13 15  1  0
 12 16  1  0
 15 16  1  6
 14 17  1  0
 15 18  1  0
 17 18  1  0
 12 19  2  0
 17 20  1  6
 20 21  1  0
M  END
$$$$
74
     RDKit          3D

 21 24  0  0  0  0  0  0  0  0999 V2000
    9.3684    8.5221   30.9427 C   0  0  0  0  0  0  0  0  0  0  0  0
    8.1654    8.3991   30.3867 C   0  0  0  0  0  0  0  0  0  0  0  0
    8.0629    7.6557   29.1734 C   0  0  2  0  0  0  0  0  0  0  0  0
    6.7708    7.4374   28.5890 O   0  0  0  0  0  0  0  0  0  0  0  0
    9.0950    7.0323   28.4845 C   0  0  0  0  0  0  0  0  0  0  0  0
   10.3918    7.1894   29.0870 C   0  0  2  0  0  0  0  0  0  0  0  0
   11.5107    6.5536   28.5062 N   0  0  0  0  0  0  0  0  0  0  0  0
   10.5170    7.8020   30.3634 N   0  0  0  0  0  0  0  0  0  0  0  0
    8.9681    6.3038   27.2489 C   0  0  2  0  0  0  0  0  0  0  0  0
   10.2048    5.7683   26.7568 C   0  0  1  0  0  0  0  0  0  0  0  0
   11.3319    5.8438   27.4302 C   0  0  1  0  0  0  0  0  0  0  0  0
   10.0698    4.7256   25.5930 C   0  0  2  0  0  0  0  0  0  0  0  0
    6.0748    6.4315   28.7503 C   0  0  0  0  0  0  0  0  0  0  0  0
   12.7160    5.2611   26.8126 C   0  0  0  0  0  0  0  0  0  0  0  0
   12.4778    4.4345   25.6399 C   0  0  0  0  0  0  0  0  0  0  0  0
   11.1912    4.2452   25.0578 C   0  0  1  0  0  0  0  0  0  0  0  0
    8.7548    4.5039   24.9805 C   0  0  0  0  0  0  0  0  0  0  0  0
    7.9229    5.4572   24.8775 N   0  0  0  0  0  0  0  0  0  0  0  0
    7.8577    6.1740   26.3888 C   0  0  0  0  0  0  0  0  0  0  0  0
   11.2475    3.1950   23.7993 C   0  0  0  0  0  0  0  0  0  0  0  0
    8.0687    6.4579   23.9410 C   0  0  0  0  0  0  0  0  0  0  0  0
  1  2  1  0
  2  3  1  0
  3  4  1  1
  3  5  1  0
  5  6  1  0
  6  7  1  1
  1  8  1  0
  6  8  1  0
  5  9  1  0
 10  9  1  1
  7 11  1  0
 10 11  1  0
 10 12  1  0
  4 13  1  0
 11 14  1  6
 14 15  1  0
 12 16  1  0
 15 16  1  0
 12 17  1  6
 17 18  1  0
  9 19  1  6
 18 19  1  0
 16 20  1  1
 18 21  1  0
M  END
$$$$
75
     RDKit          3D

 21 24  0  0  0  0  0  0  0  0999 V2000
    9.8581    7.9078   30.6039 C   0  0  0  0  0  0  0  0  0  0  0  0
    8.5522    7.8503   30.3030 C   0  0  0  0  0  0  0  0  0  0  0  0
   10.8417    7.4967   29.7624 N   0  0  0  0  0  0  0  0  0  0  0  0
   10.5556    6.9852   28.5868 C   0  0  0  0  0  0  0  0  0  0  0  0
   11.5151    6.4743   27.7005 N   0  0  0  0  0  0  0  0  0  0  0  0
    9.1102    6.9201   28.2335 C   0  0  0  0  0  0  0  0  0  0  0  0
    7.5040    8.3177   31.1835 O   0  0  0  0  0  0  0  0  0  0  0  0
    8.8384    6.3382   26.9016 C   0  0  2  0  0  0  0  0  0  0  0  0
    7.5150    6.2409   26.4884 C   0  0  0  0  0  0  0  0  0  0  0  0
    7.3166    5.6293   25.1770 C   0  0  1  0  0  0  0  0  0  0  0  0
    5.9312    5.4650   24.7750 C   0  0  0  0  0  0  0  0  0  0  0  0
    9.9631    5.8408   26.1813 N   0  0  0  0  0  0  0  0  0  0  0  0
    8.1688    7.3159   29.0442 C   0  0  0  0  0  0  0  0  0  0  0  0
    7.8573    6.1753   24.0062 C   0  0  2  0  0  0  0  0  0  0  0  0
    6.5939    9.0271   30.4662 C   0  0  0  0  0  0  0  0  0  0  0  0
    9.7434    5.2922   24.8701 C   0  0  0  0  0  0  0  0  0  0  0  0
   10.5216    4.3773   24.5543 O   0  0  0  0  0  0  0  0  0  0  0  0
    6.9939    6.6701   23.0717 C   0  0  0  0  0  0  0  0  0  0  0  0
    8.9227    5.3613   23.6621 C   0  0  0  0  0  0  0  0  0  0  0  0
   11.2028    5.7974   26.6914 C   0  0  0  0  0  0  0  0  0  0  0  0
    5.6482    6.3182   23.6330 C   0  0  0  0  0  0  0  0  0  0  0  0
  1  2  1  0
  1  3  1  0
  3  4  1  0
  4  5  1  0
  4  6  1  0
  2  7  1  0
  6  8  1  0
  8  9  1  1
 10  9  1  1
 10 11  1  0
  8 12  1  0
  2 13  1  0
  6 13  1  0
 10 14  1  0
  7 15  1  0
 12 16  1  0
 16 17  2  0
 14 18  1  6
 14 19  1  0
 16 19  1  0
  5 20  1  0
 12 20  1  0
 11 21  1  0
 18 21  1  0
M  END
$$$$
76
     RDKit          3D

 21 24  0  0  0  0  0  0  0  0999 V2000
    9.4190    8.2745   30.7731 C   0  0  0  0  0  0  0  0  0  0  0  0
   10.4078    7.7179   30.0707 O   0  0  0  0  0  0  0  0  0  0  0  0
   10.1025    7.1896   28.9620 C   0  0  1  0  0  0  0  0  0  0  0  0
   11.0205    6.4837   28.0852 C   0  0  1  0  0  0  0  0  0  0  0  0
    8.6773    6.8927   28.7343 C   0  0  1  0  0  0  0  0  0  0  0  0
   12.4067    6.6102   28.2861 O   0  0  0  0  0  0  0  0  0  0  0  0
    8.1019    8.1327   30.4810 C   0  0  0  0  0  0  0  0  0  0  0  0
    7.8489    7.4927   29.4188 C   0  0  0  0  0  0  0  0  0  0  0  0
   10.5885    5.3010   27.5193 C   0  0  2  0  0  0  0  0  0  0  0  0
    8.3841    5.9343   27.6016 C   0  0  0  0  0  0  0  0  0  0  0  0
   11.7000    4.5621   26.7143 O   0  0  0  0  0  0  0  0  0  0  0  0
   11.3020    4.3537   25.4512 C   0  0  2  0  0  0  0  0  0  0  0  0
    9.3259    5.2270   27.0551 C   0  0  0  0  0  0  0  0  0  0  0  0
    6.9452    5.8641   27.0808 C   0  0  0  0  0  0  0  0  0  0  0  0
    9.0524    4.2541   25.9322 C   0  0  1  0  0  0  0  0  0  0  0  0
   10.1170    3.6221   25.2707 C   0  0  0  0  0  0  0  0  0  0  0  0
    6.7000    4.8986   26.1645 C   0  0  0  0  0  0  0  0  0  0  0  0
    5.3661    4.7523   25.6681 O   0  0  0  0  0  0  0  0  0  0  0  0
   12.5444    3.5970   24.9282 O   0  0  0  0  0  0  0  0  0  0  0  0
    7.7018    3.9591   25.6891 C   0  0  0  0  0  0  0  0  0  0  0  0
    4.6292    5.9646   25.8580 C   0  0  0  0  0  0  0  0  0  0  0  0
  1  2  1  0
  3  2  1  1
  3  4  1  0
  3  5  1  0
  4  6  1  1
  1  7  1  0
  5  8  1  6
  7  8  1  0
  4  9  1  0
  5 10  1  0
  9 11  1  6
 11 12  1  0
  9 13  1  0
 10 13  1  0
 10 14  1  0
 13 15  1  0
 12 16  1  0
 15 16  1  1
 14 17  1  0
 17 18  1  0
 12 19  1  6
 15 20  1  0
 17 20  1  0
 18 21  1  0
M  END
$$$$
77
     RDKit          3D

 21 25  0  0  0  0  0  0  0  0999 V2000
    9.8581    7.9078   30.6039 C   0  0  0  0  0  0  0  0  0  0  0  0
   10.6407    7.4504   29.6678 O   0  0  0  0  0  0  0  0  0  0  0  0
   10.1410    6.7846   28.6302 C   0  0  0  0  0  0  0  0  0  0  0  0
    8.8131    6.7329   28.5682 C   0  0  0  0  0  0  0  0  0  0  0  0
    8.0326    7.2627   29.5693 C   0  0  2  0  0  0  0  0  0  0  0  0
    6.5156    7.0834   29.4039 C   0  0  0  0  0  0  0  0  0  0  0  0
    8.1300    6.0265   27.4002 C   0  0  2  0  0  0  0  0  0  0  0  0
   10.4924    8.6124   31.6385 O   0  0  0  0  0  0  0  0  0  0  0  0
    8.5513    7.9914   30.6456 C   0  0  0  0  0  0  0  0  0  0  0  0
    6.7294    5.9794   27.4845 C   0  0  2  0  0  0  0  0  0  0  0  0
    5.9848    6.4768   28.4357 C   0  0  0  0  0  0  0  0  0  0  0  0
    8.9934    5.4396   26.5489 C   0  0  1  0  0  0  0  0  0  0  0  0
    6.1918    5.1173   26.3151 C   0  0  2  0  0  0  0  0  0  0  0  0
   10.9896    6.2366   27.6708 C   0  0  1  0  0  0  0  0  0  0  0  0
    7.0466    4.6484   25.3823 C   0  0  0  0  0  0  0  0  0  0  0  0
   12.4078    6.3412   27.7512 N   0  0  0  0  0  0  0  0  0  0  0  0
   10.3321    5.3395   26.7910 C   0  0  2  0  0  0  0  0  0  0  0  0
   12.8317    5.4440   26.6950 C   0  0  0  0  0  0  0  0  0  0  0  0
    8.4413    4.8346   25.4284 C   0  0  0  0  0  0  0  0  0  0  0  0
    4.8338    5.0821   26.2900 O   0  0  0  0  0  0  0  0  0  0  0  0
   11.3537    4.5600   26.0197 S   0  0  0  0  0  0  0  0  0  0  0  0
  1  2  1  0
  2  3  1  0
  3  4  1  0
  4  5  1  0
  5  6  1  6
  7  4  1  1
  1  8  2  0
  1  9  1  0
  5  9  1  0
  7 10  1  0
  6 11  1  0
 10 11  1  1
  7 12  1  0
 10 13  1  0
  3 14  1  0
 13 15  1  0
 14 16  1  1
 12 17  1  0
 14 17  1  0
 16 18  1  0
 12 19  1  1
 15 19  1  0
 13 20  1  6
 17 21  1  6
 18 21  1  0
M  END
$$$$
78
     RDKit          3D

 21 24  0  0  0  0  0  0  0  0999 V2000
    8.2629    8.0336   30.6915 C   0  0  0  0  0  0  0  0  0  0  0  0
    7.5529    7.2014   30.0107 C   0  0  0  0  0  0  0  0  0  0  0  0
    9.4804    8.3652   30.0608 C   0  0  0  0  0  0  0  0  0  0  0  0
   10.0218    7.4533   29.2798 C   0  0  0  0  0  0  0  0  0  0  0  0
    8.1214    6.4055   29.1347 C   0  0  0  0  0  0  0  0  0  0  0  0
    9.3261    6.5203   28.6955 C   0  0  0  0  0  0  0  0  0  0  0  0
    9.9015    5.5795   27.5572 C   0  0  0  0  0  0  0  0  0  0  0  0
    9.9369    6.0767   26.3954 N   0  0  0  0  0  0  0  0  0  0  0  0
   10.4224    5.1953   25.3547 C   0  0  2  0  0  0  0  0  0  0  0  0
   10.6404    5.5476   24.0753 C   0  0  2  0  0  0  0  0  0  0  0  0
   10.2889    4.3998   27.8513 C   0  0  1  0  0  0  0  0  0  0  0  0
   10.4161    6.7902   23.5576 C   0  0  0  0  0  0  0  0  0  0  0  0
   10.6178    6.9838   22.1983 O   0  0  0  0  0  0  0  0  0  0  0  0
   10.3305    3.5874   28.9048 C   0  0  0  0  0  0  0  0  0  0  0  0
   10.4209    2.1572   28.6473 O   0  0  0  0  0  0  0  0  0  0  0  0
    9.9667    7.6486   24.4029 O   0  0  0  0  0  0  0  0  0  0  0  0
    9.8450    7.4317   25.7172 C   0  0  0  0  0  0  0  0  0  0  0  0
   10.4695    3.8314   25.9890 S   0  0  2  0  0  0  0  0  0  0  0  0
   11.0266    4.5295   23.0482 C   0  0  0  0  0  0  0  0  0  0  0  0
   11.2993    3.2163   23.7068 C   0  0  0  0  0  0  0  0  0  0  0  0
   11.0913    2.8508   25.0074 C   0  0  0  0  0  0  0  0  0  0  0  0
  1  2  1  0
  1  3  1  0
  3  4  1  0
  2  5  1  0
  4  6  1  0
  5  6  1  0
  6  7  1  0
  7  8  1  0
  9  8  1  6
  9 10  1  0
  7 11  1  0
 10 12  1  0
 12 13  2  0
 11 14  1  1
 14 15  1  0
 12 16  1  0
  8 17  1  0
 16 17  1  0
  9 18  1  0
 11 18  1  0
 10 19  1  6
 19 20  1  0
 18 21  1  1
 20 21  1  0
M  END
$$$$
79
     RDKit          3D

 21 22  0  0  0  0  0  0  0  0999 V2000
   11.0303    6.7668   30.0234 O   0  0  0  0  0  0  0  0  0  0  0  0
   10.2471    7.2650   29.6195 C   0  0  0  0  0  0  0  0  0  0  0  0
    9.5258    8.1610   30.4953 C   0  0  0  0  0  0  0  0  0  0  0  0
    9.4445    7.1130   28.4363 N   0  0  0  0  0  0  0  0  0  0  0  0
    8.2058    8.5253   30.0041 C   0  0  1  0  0  0  0  0  0  0  0  0
    7.2348    9.4337   30.4161 C   0  0  0  0  0  0  0  0  0  0  0  0
    7.2694    9.8273   31.5660 O   0  0  0  0  0  0  0  0  0  0  0  0
    6.6487   10.3463   29.5882 O   0  0  0  0  0  0  0  0  0  0  0  0
    8.1882    7.8674   28.5710 C   0  0  0  0  0  0  0  0  0  0  0  0
    9.8888    6.4823   27.2544 C   0  0  0  0  0  0  0  0  0  0  0  0
   10.4649    5.3365   27.2134 C   0  0  2  0  0  0  0  0  0  0  0  0
    9.6675    7.1601   26.0152 C   0  0  0  0  0  0  0  0  0  0  0  0
   10.7622    4.4747   28.5505 C   0  0  0  0  0  0  0  0  0  0  0  0
   10.0580    6.5141   24.9767 C   0  0  1  0  0  0  0  0  0  0  0  0
    9.8489    7.0725   23.5461 C   0  0  0  0  0  0  0  0  0  0  0  0
   10.9350    5.3358   24.9026 C   0  0  0  0  0  0  0  0  0  0  0  0
   11.3396    4.7722   26.2480 C   0  0  0  0  0  0  0  0  0  0  0  0
    8.6142    6.9701   23.1185 O   0  0  0  0  0  0  0  0  0  0  0  0
   11.4116    4.6380   23.7119 O   0  0  0  0  0  0  0  0  0  0  0  0
   10.4203    7.6759   22.6990 O   0  0  0  0  0  0  0  0  0  0  0  0
   10.8954    3.3024   23.6779 C   0  0  0  0  0  0  0  0  0  0  0  0
  1  2  2  0
  2  3  1  0
  2  4  1  0
  3  5  1  0
  5  6  1  6
  6  7  1  0
  6  8  2  0
  4  9  1  0
  5  9  1  0
  4 10  1  0
 10 11  1  0
 10 12  1  0
 11 13  1  1
 12 14  1  0
 14 15  1  6
 14 16  1  0
 11 17  1  0
 16 17  1  0
 15 18  1  0
 16 19  1  0
 15 20  2  0
 19 21  1  0
M  END
$$$$
8
     RDKit          3D

 15 16  0  0  0  0  0  0  0  0999 V2000
   11.8255    2.3086   24.4914 O   0  0  0  0  0  0  0  0  0  0  0  0
   11.1724    3.4106   24.5404 C   0  0  0  0  0  0  0  0  0  0  0  0
   10.4118    3.7105   23.5636 N   0  0  0  0  0  0  0  0  0  0  0  0
   11.5610    4.4598   25.3850 C   0  0  1  0  0  0  0  0  0  0  0  0
   12.4452    4.2849   26.5065 O   0  0  0  0  0  0  0  0  0  0  0  0
   11.2400    5.7761   25.1264 C   0  0  1  0  0  0  0  0  0  0  0  0
    9.8524    4.9599   23.3293 C   0  0  0  0  0  0  0  0  0  0  0  0
    8.8743    5.1970   22.6108 O   0  0  0  0  0  0  0  0  0  0  0  0
   10.3211    6.0547   24.2049 N   0  0  0  0  0  0  0  0  0  0  0  0
    9.8466    7.3904   23.7885 C   0  0  0  0  0  0  0  0  0  0  0  0
   11.7585    6.7089   26.1612 C   0  0  0  0  0  0  0  0  0  0  0  0
   12.5634    5.6185   27.0576 C   0  0  0  0  0  0  0  0  0  0  0  0
   11.6870    7.9750   26.3424 C   0  0  0  0  0  0  0  0  0  0  0  0
   12.1431    8.5015   27.5365 O   0  0  0  0  0  0  0  0  0  0  0  0
   11.4017    8.6877   25.3391 O   0  0  0  0  0  0  0  0  0  0  0  0
  1  2  2  0
  2  3  1  0
  2  4  1  0
  4  5  1  6
  4  6  1  0
  3  7  1  0
  7  8  2  0
  6  9  1  0
  7  9  1  0
  9 10  1  0
  6 11  1  1
  5 12  1  0
 11 12  1  0
 11 13  1  0
 13 14  1  0
 13 15  2  0
M  END
$$$$
80
     RDKit          3D

 21 25  0  0  0  0  0  0  0  0999 V2000
    8.2629    8.0336   30.6915 C   0  0  0  0  0  0  0  0  0  0  0  0
    9.4960    8.0742   30.2452 C   0  0  0  0  0  0  0  0  0  0  0  0
    9.9708    7.4661   29.1275 C   0  0  2  0  0  0  0  0  0  0  0  0
    9.0119    6.7642   28.3539 C   0  0  2  0  0  0  0  0  0  0  0  0
    7.6627    6.7437   28.7432 C   0  0  2  0  0  0  0  0  0  0  0  0
    7.2914    7.3192   29.7945 C   0  0  0  0  0  0  0  0  0  0  0  0
   11.3027    7.4047   28.8505 N   0  0  0  0  0  0  0  0  0  0  0  0
    6.9253    5.7739   27.8056 C   0  0  2  0  0  0  0  0  0  0  0  0
    5.5268    5.6365   28.0385 C   0  0  0  0  0  0  0  0  0  0  0  0
    7.6106    4.7169   27.3988 N   0  0  0  0  0  0  0  0  0  0  0  0
    8.7074    5.1527   26.5543 C   0  0  1  0  0  0  0  0  0  0  0  0
    9.6360    6.0370   27.2606 C   0  0  1  0  0  0  0  0  0  0  0  0
    9.4549    4.0642   25.8099 C   0  0  0  0  0  0  0  0  0  0  0  0
   10.2531    4.1979   24.8115 C   0  0  1  0  0  0  0  0  0  0  0  0
    6.6029    3.8391   26.6131 C   0  0  0  0  0  0  0  0  0  0  0  0
    5.4349    4.6363   26.5240 C   0  0  0  0  0  0  0  0  0  0  0  0
   11.6825    6.8861   27.6031 C   0  0  0  0  0  0  0  0  0  0  0  0
   10.9243    6.1579   26.7571 C   0  0  2  0  0  0  0  0  0  0  0  0
   11.4004    5.6583   25.4197 C   0  0  0  0  0  0  0  0  0  0  0  0
   11.3167    3.2946   24.3614 C   0  0  0  0  0  0  0  0  0  0  0  0
   11.7806    2.5207   24.1588 N   0  0  0  0  0  0  0  0  0  0  0  0
  1  2  1  0
  3  2  1  1
  4  3  1  1
  4  5  1  0
  1  6  1  0
  5  6  1  1
  3  7  1  0
  5  8  1  0
  8  9  1  1
  8 10  1  0
 10 11  1  0
  4 12  1  0
 12 11  1  6
 11 13  1  1
 13 14  1  0
 10 15  1  0
  9 16  1  0
 15 16  1  0
  7 17  1  0
 12 18  1  0
 18 17  1  6
 14 19  1  0
 18 19  1  0
 14 20  1  1
 20 21  3  0
M  END
$$$$
81
     RDKit          3D

 21 23  0  0  0  0  0  0  0  0999 V2000
   12.0202    2.9861   24.6830 O   0  0  0  0  0  0  0  0  0  0  0  0
   10.8339    3.4254   24.5729 C   0  0  0  0  0  0  0  0  0  0  0  0
   10.3616    3.6298   23.6055 O   0  0  0  0  0  0  0  0  0  0  0  0
   10.3254    4.3458   25.7329 C   0  0  2  0  0  0  0  0  0  0  0  0
    9.5118    3.8054   26.4604 C   0  0  2  0  0  0  0  0  0  0  0  0
    9.7500    5.6025   25.1861 C   0  0  1  0  0  0  0  0  0  0  0  0
   10.7130    6.6060   24.7725 C   0  0  1  0  0  0  0  0  0  0  0  0
   10.2469    7.8506   24.4416 C   0  0  0  0  0  0  0  0  0  0  0  0
   12.0724    6.4142   24.9793 O   0  0  0  0  0  0  0  0  0  0  0  0
    8.8979    8.0092   24.3411 C   0  0  0  0  0  0  0  0  0  0  0  0
    9.9108    2.9169   27.5767 C   0  0  0  0  0  0  0  0  0  0  0  0
    8.4310    5.8541   24.8355 C   0  0  1  0  0  0  0  0  0  0  0  0
   11.3369    8.8670   24.2336 C   0  0  0  0  0  0  0  0  0  0  0  0
   11.0291    9.8875   23.5217 O   0  0  0  0  0  0  0  0  0  0  0  0
    8.1095    3.6805   26.2903 C   0  0  0  0  0  0  0  0  0  0  0  0
   12.5700    8.7316   24.7249 N   0  0  0  0  0  0  0  0  0  0  0  0
   11.1655    2.9544   28.0958 O   0  0  0  0  0  0  0  0  0  0  0  0
   12.9186    7.4960   25.1466 C   0  0  0  0  0  0  0  0  0  0  0  0
    7.5389    4.7312   25.2763 C   0  0  0  0  0  0  0  0  0  0  0  0
    7.9902    7.0845   24.4809 C   0  0  0  0  0  0  0  0  0  0  0  0
    9.1136    2.3417   28.4753 O   0  0  0  0  0  0  0  0  0  0  0  0
  1  2  2  0
  2  3  1  0
  4  2  1  6
  4  5  1  0
  4  6  1  0
  6  7  1  6
  7  8  1  0
  7  9  1  1
  8 10  1  0
  5 11  1  6
  6 12  1  0
  8 13  1  0
 13 14  2  0
  5 15  1  0
 13 16  1  0
 11 17  2  0
  9 18  1  0
 16 18  1  0
 12 19  1  1
 15 19  1  0
 10 20  1  0
 12 20  1  0
 11 21  1  0
M  END
$$$$
82
     RDKit          3D

 21 23  0  0  0  0  0  0  0  0999 V2000
   11.0303    6.7668   30.0234 O   0  0  0  0  0  0  0  0  0  0  0  0
   10.2471    7.2650   29.6195 C   0  0  0  0  0  0  0  0  0  0  0  0
    9.5258    8.1610   30.4953 C   0  0  0  0  0  0  0  0  0  0  0  0
    9.4445    7.1130   28.4363 N   0  0  0  0  0  0  0  0  0  0  0  0
    8.2058    8.5253   30.0041 C   0  0  1  0  0  0  0  0  0  0  0  0
    7.2348    9.4337   30.4161 C   0  0  0  0  0  0  0  0  0  0  0  0
    7.2694    9.8273   31.5660 O   0  0  0  0  0  0  0  0  0  0  0  0
    6.6487   10.3463   29.5882 O   0  0  0  0  0  0  0  0  0  0  0  0
    8.1882    7.8674   28.5710 C   0  0  0  0  0  0  0  0  0  0  0  0
    9.8888    6.4823   27.2544 C   0  0  0  0  0  0  0  0  0  0  0  0
   10.4649    5.3365   27.2134 C   0  0  2  0  0  0  0  0  0  0  0  0
    9.6675    7.1601   26.0152 C   0  0  0  0  0  0  0  0  0  0  0  0
   10.7622    4.4747   28.5505 C   0  0  0  0  0  0  0  0  0  0  0  0
   10.0580    6.5141   24.9767 C   0  0  1  0  0  0  0  0  0  0  0  0
    9.8489    7.0725   23.5461 C   0  0  0  0  0  0  0  0  0  0  0  0
   10.9350    5.3358   24.9026 C   0  0  0  0  0  0  0  0  0  0  0  0
   11.3396    4.7722   26.2480 C   0  0  2  0  0  0  0  0  0  0  0  0
   11.7239    3.5049   26.4461 O   0  0  0  0  0  0  0  0  0  0  0  0
   11.0851    3.1742   27.8046 C   0  0  0  0  0  0  0  0  0  0  0  0
    9.1989    8.0796   23.5467 O   0  0  0  0  0  0  0  0  0  0  0  0
   10.1541    6.4004   22.5311 O   0  0  0  0  0  0  0  0  0  0  0  0
  1  2  2  0
  2  3  1  0
  2  4  1  0
  3  5  1  0
  5  6  1  6
  6  7  1  0
  6  8  2  0
  4  9  1  0
  5  9  1  0
  4 10  1  0
 10 11  1  0
 10 12  1  0
 11 13  1  1
 12 14  1  0
 14 15  1  6
 14 16  1  0
 11 17  1  0
 17 16  1  6
 17 18  1  0
 13 19  1  0
 18 19  1  0
 15 20  2  0
 15 21  1  0
M  END
$$$$
83
     RDKit          3D

 21 22  0  0  0  0  0  0  0  0999 V2000
   11.0303    6.7668   30.0234 O   0  0  0  0  0  0  0  0  0  0  0  0
   10.2471    7.2650   29.6195 C   0  0  0  0  0  0  0  0  0  0  0  0
    9.5258    8.1610   30.4953 C   0  0  0  0  0  0  0  0  0  0  0  0
    9.4445    7.1130   28.4363 N   0  0  0  0  0  0  0  0  0  0  0  0
    8.2058    8.5253   30.0041 C   0  0  1  0  0  0  0  0  0  0  0  0
    7.2348    9.4337   30.4161 C   0  0  0  0  0  0  0  0  0  0  0  0
    7.2694    9.8273   31.5660 O   0  0  0  0  0  0  0  0  0  0  0  0
    6.6487   10.3463   29.5882 O   0  0  0  0  0  0  0  0  0  0  0  0
    8.1882    7.8674   28.5710 C   0  0  0  0  0  0  0  0  0  0  0  0
    9.8888    6.4823   27.2544 C   0  0  0  0  0  0  0  0  0  0  0  0
   10.4649    5.3365   27.2134 C   0  0  2  0  0  0  0  0  0  0  0  0
    9.6675    7.1601   26.0152 C   0  0  0  0  0  0  0  0  0  0  0  0
   10.7622    4.4747   28.5505 C   0  0  0  0  0  0  0  0  0  0  0  0
   10.0580    6.5141   24.9767 C   0  0  1  0  0  0  0  0  0  0  0  0
    9.8489    7.0725   23.5461 C   0  0  0  0  0  0  0  0  0  0  0  0
   10.9350    5.3358   24.9026 C   0  0  2  0  0  0  0  0  0  0  0  0
   11.3396    4.7722   26.2480 C   0  0  2  0  0  0  0  0  0  0  0  0
    8.6142    6.9701   23.1185 O   0  0  0  0  0  0  0  0  0  0  0  0
   11.5054    4.8613   23.7538 O   0  0  0  0  0  0  0  0  0  0  0  0
   11.9579    3.6052   26.2118 O   0  0  0  0  0  0  0  0  0  0  0  0
   10.6602    7.6816   22.8831 O   0  0  0  0  0  0  0  0  0  0  0  0
  1  2  2  0
  2  3  1  0
  2  4  1  0
  3  5  1  0
  5  6  1  6
  6  7  1  0
  6  8  2  0
  4  9  1  0
  5  9  1  0
  4 10  1  0
 10 11  1  0
 10 12  1  0
 11 13  1  1
 12 14  1  0
 14 15  1  6
 14 16  1  0
 11 17  1  0
 16 17  1  0
 15 18  1  0
 16 19  1  6
 17 20  1  6
 15 21  2  0
M  END
$$$$
84
     RDKit          3D

 21 22  0  0  0  0  0  0  0  0999 V2000
    8.3364    9.2832   30.6734 C   0  0  0  0  0  0  0  0  0  0  0  0
    9.1267    8.3468   30.1494 C   0  0  0  0  0  0  0  0  0  0  0  0
    7.0620    9.0450   30.7768 C   0  0  0  0  0  0  0  0  0  0  0  0
    8.7173    7.4624   29.6336 C   0  0  0  0  0  0  0  0  0  0  0  0
    6.4955    7.9471   30.1433 C   0  0  0  0  0  0  0  0  0  0  0  0
    9.5976    6.3274   28.9552 O   0  0  0  0  0  0  0  0  0  0  0  0
    7.3233    7.0113   29.5887 C   0  0  0  0  0  0  0  0  0  0  0  0
   10.8411    6.7048   28.5023 C   0  0  0  0  0  0  0  0  0  0  0  0
   11.4444    5.5242   27.9225 C   0  0  0  0  0  0  0  0  0  0  0  0
   11.7825    5.4689   26.6106 C   0  0  0  0  0  0  0  0  0  0  0  0
   10.9982    5.2719   25.6379 C   0  0  1  0  0  0  0  0  0  0  0  0
   10.9123    4.0703   24.9475 C   0  0  0  0  0  0  0  0  0  0  0  0
   11.8517    3.2410   25.1587 O   0  0  0  0  0  0  0  0  0  0  0  0
    9.8967    3.8743   24.0818 C   0  0  0  0  0  0  0  0  0  0  0  0
    8.9511    4.8478   23.7565 C   0  0  0  0  0  0  0  0  0  0  0  0
    9.0055    6.0695   24.4216 C   0  0  2  0  0  0  0  0  0  0  0  0
    9.9394    6.3034   25.4035 C   0  0  0  0  0  0  0  0  0  0  0  0
   11.2386    7.7928   28.2085 O   0  0  0  0  0  0  0  0  0  0  0  0
    7.9677    7.0333   24.2665 C   0  0  0  0  0  0  0  0  0  0  0  0
    8.3180    8.2679   24.2875 O   0  0  0  0  0  0  0  0  0  0  0  0
    6.7015    6.8250   24.0450 O   0  0  0  0  0  0  0  0  0  0  0  0
  1  2  1  0
  1  3  1  0
  2  4  1  0
  3  5  1  0
  4  6  1  0
  4  7  1  0
  5  7  1  0
  6  8  1  0
  8  9  1  0
  9 10  1  0
 11 10  1  1
 11 12  1  0
 12 13  1  0
 12 14  1  0
 14 15  1  0
 15 16  1  0
 11 17  1  0
 16 17  1  0
  8 18  2  0
 16 19  1  1
 19 20  2  0
 19 21  1  0
M  END
$$$$
85
     RDKit          3D

 21 23  0  0  0  0  0  0  0  0999 V2000
    8.2629    8.0336   30.6915 C   0  0  0  0  0  0  0  0  0  0  0  0
    7.5529    7.2014   30.0107 C   0  0  1  0  0  0  0  0  0  0  0  0
    6.2517    6.9162   30.3447 C   0  0  0  0  0  0  0  0  0  0  0  0
    7.9410    6.8250   28.6393 C   0  0  1  0  0  0  0  0  0  0  0  0
    9.2767    7.1812   28.2203 C   0  0  1  0  0  0  0  0  0  0  0  0
   10.1148    7.9259   29.0597 C   0  0  0  0  0  0  0  0  0  0  0  0
    7.0675    5.9348   27.8269 C   0  0  0  0  0  0  0  0  0  0  0  0
    9.9546    6.7434   26.8978 C   0  0  0  0  0  0  0  0  0  0  0  0
    9.6398    8.3356   30.3093 C   0  0  0  0  0  0  0  0  0  0  0  0
    9.5115    7.3847   25.9069 O   0  0  0  0  0  0  0  0  0  0  0  0
   10.4935    5.5799   26.6739 N   0  0  0  0  0  0  0  0  0  0  0  0
    5.7962    5.6601   28.3552 C   0  0  0  0  0  0  0  0  0  0  0  0
    5.3796    6.1118   29.5875 C   0  0  0  0  0  0  0  0  0  0  0  0
   10.8978    5.2370   25.2928 C   0  0  0  0  0  0  0  0  0  0  0  0
    4.7464    4.7459   27.4198 C   0  0  0  0  0  0  0  0  0  0  0  0
   10.4225    4.3916   27.4510 C   0  0  0  0  0  0  0  0  0  0  0  0
   10.0565    4.3580   24.5782 C   0  0  0  0  0  0  0  0  0  0  0  0
    4.6382    5.2014   26.2546 N   0  0  0  0  0  0  0  0  0  0  0  0
    9.4458    3.3349   27.0352 C   0  0  0  0  0  0  0  0  0  0  0  0
    3.6801    4.3136   28.0265 O   0  0  0  0  0  0  0  0  0  0  0  0
    9.7903    3.1022   25.4705 N   0  0  0  0  0  0  0  0  0  0  0  0
  2  1  1  6
  2  3  1  0
  2  4  1  0
  4  5  1  0
  5  6  1  0
  4  7  1  1
  5  8  1  1
  1  9  1  0
  6  9  1  0
  8 10  2  0
  8 11  1  0
  7 12  1  0
  3 13  1  0
 12 13  1  0
 11 14  1  0
 12 15  1  0
 11 16  1  0
 14 17  1  0
 15 18  1  0
 16 19  1  0
 15 20  2  0
 17 21  1  0
 19 21  1  0
M  END
$$$$
86
     RDKit          3D

 21 24  0  0  0  0  0  0  0  0999 V2000
    9.3684    8.5221   30.9427 C   0  0  0  0  0  0  0  0  0  0  0  0
   10.2835    7.8402   30.2046 O   0  0  0  0  0  0  0  0  0  0  0  0
    9.7698    7.1465   29.1050 C   0  0  1  0  0  0  0  0  0  0  0  0
    8.4175    7.2348   28.8672 C   0  0  0  0  0  0  0  0  0  0  0  0
   10.7109    6.5101   28.2026 C   0  0  0  0  0  0  0  0  0  0  0  0
   10.2175    5.8233   27.0814 C   0  0  0  0  0  0  0  0  0  0  0  0
    8.0322    8.6377   30.7509 C   0  0  0  0  0  0  0  0  0  0  0  0
    7.6237    7.9999   29.6714 C   0  0  0  0  0  0  0  0  0  0  0  0
    8.7750    5.6984   26.8915 C   0  0  0  0  0  0  0  0  0  0  0  0
    7.8732    6.4541   27.7886 C   0  0  2  0  0  0  0  0  0  0  0  0
    6.3377    6.4047   27.4453 C   0  0  0  0  0  0  0  0  0  0  0  0
   11.0673    5.1201   25.9380 C   0  0  0  0  0  0  0  0  0  0  0  0
   12.1259    5.7002   25.6516 O   0  0  0  0  0  0  0  0  0  0  0  0
    8.1435    4.8991   25.8565 C   0  0  1  0  0  0  0  0  0  0  0  0
    9.0597    4.0789   25.1481 C   0  0  0  0  0  0  0  0  0  0  0  0
   10.4759    4.1824   25.2015 N   0  0  0  0  0  0  0  0  0  0  0  0
   11.4087    3.1976   24.5147 C   0  0  0  0  0  0  0  0  0  0  0  0
    6.7510    4.8718   25.7621 C   0  0  0  0  0  0  0  0  0  0  0  0
    5.9482    5.7298   26.5013 C   0  0  1  0  0  0  0  0  0  0  0  0
    4.4892    5.6848   26.3106 O   0  0  0  0  0  0  0  0  0  0  0  0
    3.7317    5.0605   27.0611 C   0  0  0  0  0  0  0  0  0  0  0  0
  1  2  1  0
  2  3  1  0
  3  4  1  0
  3  5  1  6
  5  6  1  0
  1  7  1  0
  4  8  1  0
  7  8  1  0
  6  9  1  0
  4 10  1  0
  9 10  1  0
 10 11  1  6
  6 12  1  0
 12 13  2  0
  9 14  1  0
 14 15  1  1
 12 16  1  0
 15 16  1  0
 16 17  1  0
 14 18  1  0
 11 19  1  0
 18 19  1  0
 19 20  1  1
 20 21  1  0
M  END
$$$$
87
     RDKit          3D

 21 25  0  0  0  0  0  0  0  0999 V2000
    8.2629    8.0336   30.6915 C   0  0  0  0  0  0  0  0  0  0  0  0
    9.4960    8.0742   30.2452 C   0  0  0  0  0  0  0  0  0  0  0  0
    9.9708    7.4661   29.1275 C   0  0  2  0  0  0  0  0  0  0  0  0
    9.0119    6.7642   28.3539 C   0  0  2  0  0  0  0  0  0  0  0  0
    7.6627    6.7437   28.7432 C   0  0  2  0  0  0  0  0  0  0  0  0
    7.2914    7.3192   29.7945 C   0  0  0  0  0  0  0  0  0  0  0  0
   11.3027    7.4047   28.8505 N   0  0  0  0  0  0  0  0  0  0  0  0
    6.9253    5.7739   27.8056 C   0  0  2  0  0  0  0  0  0  0  0  0
    5.5268    5.6365   28.0385 C   0  0  0  0  0  0  0  0  0  0  0  0
    7.6106    4.7169   27.3988 N   0  0  0  0  0  0  0  0  0  0  0  0
    8.7074    5.1527   26.5543 C   0  0  1  0  0  0  0  0  0  0  0  0
    9.6360    6.0370   27.2606 C   0  0  1  0  0  0  0  0  0  0  0  0
    9.4549    4.0642   25.8099 C   0  0  0  0  0  0  0  0  0  0  0  0
   10.2531    4.1979   24.8115 C   0  0  0  0  0  0  0  0  0  0  0  0
    6.6029    3.8391   26.6131 C   0  0  0  0  0  0  0  0  0  0  0  0
    5.4349    4.6363   26.5240 C   0  0  0  0  0  0  0  0  0  0  0  0
   11.6825    6.8861   27.6031 C   0  0  0  0  0  0  0  0  0  0  0  0
   10.9243    6.1579   26.7571 C   0  0  1  0  0  0  0  0  0  0  0  0
   11.3886    5.4219   25.5388 C   0  0  0  0  0  0  0  0  0  0  0  0
    9.4514    4.8907   23.8156 C   0  0  0  0  0  0  0  0  0  0  0  0
   11.2028    3.0871   24.4212 C   0  0  0  0  0  0  0  0  0  0  0  0
  1  2  1  0
  3  2  1  1
  4  3  1  1
  4  5  1  0
  1  6  1  0
  5  6  1  1
  3  7  1  0
  5  8  1  0
  8  9  1  1
  8 10  1  0
 10 11  1  0
  4 12  1  0
 12 11  1  6
 11 13  1  1
 13 14  1  0
 10 15  1  0
  9 16  1  0
 15 16  1  0
  7 17  1  0
 12 18  1  0
 18 17  1  1
 14 19  1  0
 18 19  1  0
 14 20  1  0
 14 21  1  0
M  END
$$$$
88
     RDKit          3D

 21 24  0  0  0  0  0  0  0  0999 V2000
    9.3684    8.5221   30.9427 C   0  0  0  0  0  0  0  0  0  0  0  0
    8.1654    8.3991   30.3867 C   0  0  1  0  0  0  0  0  0  0  0  0
    7.0359    8.9538   30.9066 O   0  0  0  0  0  0  0  0  0  0  0  0
    8.1461    7.7897   29.1192 C   0  0  0  0  0  0  0  0  0  0  0  0
    9.2552    7.2617   28.4702 C   0  0  0  0  0  0  0  0  0  0  0  0
   10.4941    7.3714   29.1416 C   0  0  0  0  0  0  0  0  0  0  0  0
    9.4848    9.1405   32.1995 O   0  0  0  0  0  0  0  0  0  0  0  0
   10.4951    8.0281   30.3914 C   0  0  0  0  0  0  0  0  0  0  0  0
    6.5619   10.1214   30.4448 C   0  0  0  0  0  0  0  0  0  0  0  0
   11.6388    6.8478   28.5800 N   0  0  0  0  0  0  0  0  0  0  0  0
    9.3381    6.6018   27.2022 C   0  0  1  0  0  0  0  0  0  0  0  0
    8.0531    6.4782   26.4771 N   0  0  0  0  0  0  0  0  0  0  0  0
   10.4414    6.4775   26.6075 C   0  0  1  0  0  0  0  0  0  0  0  0
    8.2938    5.9776   25.3274 C   0  0  0  0  0  0  0  0  0  0  0  0
   11.6795    6.4490   27.3043 C   0  0  0  0  0  0  0  0  0  0  0  0
    9.8952    5.5795   25.4170 C   0  0  1  0  0  0  0  0  0  0  0  0
   10.7106    4.9620   24.4399 C   0  0  0  0  0  0  0  0  0  0  0  0
   11.6747    4.1430   24.9466 C   0  0  0  0  0  0  0  0  0  0  0  0
    9.9189    4.2351   23.4372 C   0  0  0  0  0  0  0  0  0  0  0  0
   11.8645    2.9806   24.1992 C   0  0  0  0  0  0  0  0  0  0  0  0
   10.6948    2.9413   23.3137 C   0  0  0  0  0  0  0  0  0  0  0  0
  1  2  1  0
  2  3  1  6
  2  4  1  0
  4  5  1  0
  5  6  1  0
  1  7  1  0
  1  8  1  0
  6  8  1  0
  3  9  1  0
  6 10  1  0
  5 11  1  0
 11 12  1  6
 11 13  1  0
 12 14  1  0
 10 15  1  0
 13 15  1  1
 13 16  1  0
 14 16  1  0
 16 17  1  6
 17 18  1  0
 17 19  1  0
 18 20  1  0
 19 21  1  0
 20 21  1  0
M  END
$$$$
89
     RDKit          3D

 21 24  0  0  0  0  0  0  0  0999 V2000
    9.3684    8.5221   30.9427 C   0  0  0  0  0  0  0  0  0  0  0  0
   10.2835    7.8402   30.2046 O   0  0  0  0  0  0  0  0  0  0  0  0
    9.7698    7.1465   29.1050 C   0  0  1  0  0  0  0  0  0  0  0  0
    8.4175    7.2348   28.8672 C   0  0  0  0  0  0  0  0  0  0  0  0
   10.7109    6.5101   28.2026 C   0  0  0  0  0  0  0  0  0  0  0  0
   10.2175    5.8233   27.0814 C   0  0  0  0  0  0  0  0  0  0  0  0
    8.0322    8.6377   30.7509 C   0  0  0  0  0  0  0  0  0  0  0  0
    7.6237    7.9999   29.6714 C   0  0  0  0  0  0  0  0  0  0  0  0
    8.7750    5.6984   26.8915 C   0  0  0  0  0  0  0  0  0  0  0  0
    7.8732    6.4541   27.7886 C   0  0  2  0  0  0  0  0  0  0  0  0
    6.3377    6.4047   27.4453 C   0  0  0  0  0  0  0  0  0  0  0  0
   11.0673    5.1201   25.9380 C   0  0  0  0  0  0  0  0  0  0  0  0
   12.1259    5.7002   25.6516 O   0  0  0  0  0  0  0  0  0  0  0  0
    8.1435    4.8991   25.8565 C   0  0  1  0  0  0  0  0  0  0  0  0
   10.5597    4.3721   24.9624 N   0  0  0  0  0  0  0  0  0  0  0  0
    6.8040    4.8087   25.7857 C   0  0  0  0  0  0  0  0  0  0  0  0
    9.0020    4.4106   24.8522 C   0  0  0  0  0  0  0  0  0  0  0  0
    5.9501    5.5654   26.5408 C   0  0  0  0  0  0  0  0  0  0  0  0
    4.2654    5.4949   26.4099 Cl  0  0  0  0  0  0  0  0  0  0  0  0
   11.3046    3.9070   23.9390 C   0  0  0  0  0  0  0  0  0  0  0  0
   11.3843    2.3969   24.1847 C   0  0  0  0  0  0  0  0  0  0  0  0
  1  2  1  0
  2  3  1  0
  3  4  1  0
  3  5  1  6
  5  6  1  0
  1  7  1  0
  4  8  1  0
  7  8  1  0
  6  9  1  0
  4 10  1  0
  9 10  1  0
 10 11  1  6
  6 12  1  0
 12 13  2  0
  9 14  1  0
 12 15  1  0
 14 16  1  6
 14 17  1  0
 15 17  1  0
 11 18  1  0
 16 18  1  0
 18 19  1  0
 15 20  1  0
 20 21  1  0
M  END
$$$$
9
     RDKit          3D

 16 18  0  0  0  0  0  0  0  0999 V2000
    9.8581    7.9078   30.6039 C   0  0  0  0  0  0  0  0  0  0  0  0
    8.5522    7.8503   30.3030 C   0  0  0  0  0  0  0  0  0  0  0  0
   10.8417    7.4967   29.7624 N   0  0  0  0  0  0  0  0  0  0  0  0
   10.3715    6.9188   28.6604 C   0  0  1  0  0  0  0  0  0  0  0  0
   11.4069    6.3472   27.7224 N   0  0  0  0  0  0  0  0  0  0  0  0
    8.1646    7.1773   29.1664 C   0  0  0  0  0  0  0  0  0  0  0  0
    9.1155    6.6241   28.3151 C   0  0  0  0  0  0  0  0  0  0  0  0
    9.2901    5.8129   27.1584 C   0  0  2  0  0  0  0  0  0  0  0  0
   10.5836    5.6701   26.7975 C   0  0  1  0  0  0  0  0  0  0  0  0
    8.0425    5.2725   26.4230 C   0  0  0  0  0  0  0  0  0  0  0  0
    8.3041    4.6645   25.2885 C   0  0  0  0  0  0  0  0  0  0  0  0
   10.8475    4.9261   25.5063 C   0  0  0  0  0  0  0  0  0  0  0  0
   12.1171    4.7666   25.0124 O   0  0  0  0  0  0  0  0  0  0  0  0
    9.7173    4.4377   24.8303 C   0  0  1  0  0  0  0  0  0  0  0  0
    9.9675    3.5788   23.6956 O   0  0  0  0  0  0  0  0  0  0  0  0
   10.9922    2.5612   23.8158 C   0  0  0  0  0  0  0  0  0  0  0  0
  1  2  1  0
  1  3  1  0
  4  3  1  1
  4  5  1  0
  2  6  1  0
  4  7  1  0
  6  7  1  0
  7  8  1  0
  9  5  1  6
  8  9  1  0
  8 10  1  6
 10 11  1  0
  9 12  1  0
 12 13  1  0
 11 14  1  0
 12 14  1  0
 14 15  1  1
 15 16  1  0
M  END
$$$$
90
     RDKit          3D

 21 23  0  0  0  0  0  0  0  0999 V2000
   12.0202    2.9861   24.6830 O   0  0  0  0  0  0  0  0  0  0  0  0
   10.8339    3.4254   24.5729 C   0  0  0  0  0  0  0  0  0  0  0  0
   10.3616    3.6298   23.6055 O   0  0  0  0  0  0  0  0  0  0  0  0
   10.3254    4.3458   25.7329 C   0  0  2  0  0  0  0  0  0  0  0  0
    9.5118    3.8054   26.4604 C   0  0  2  0  0  0  0  0  0  0  0  0
    9.7500    5.6025   25.1861 C   0  0  1  0  0  0  0  0  0  0  0  0
   10.7130    6.6060   24.7725 C   0  0  1  0  0  0  0  0  0  0  0  0
   10.2469    7.8506   24.4416 C   0  0  0  0  0  0  0  0  0  0  0  0
   12.0724    6.4142   24.9793 O   0  0  0  0  0  0  0  0  0  0  0  0
    8.8979    8.0092   24.3411 C   0  0  0  0  0  0  0  0  0  0  0  0
    9.9108    2.9169   27.5767 C   0  0  0  0  0  0  0  0  0  0  0  0
    8.4310    5.8541   24.8355 C   0  0  1  0  0  0  0  0  0  0  0  0
   11.3369    8.8670   24.2336 C   0  0  0  0  0  0  0  0  0  0  0  0
   11.0291    9.8875   23.5217 O   0  0  0  0  0  0  0  0  0  0  0  0
    8.1095    3.6805   26.2903 C   0  0  0  0  0  0  0  0  0  0  0  0
   12.5700    8.7316   24.7249 N   0  0  0  0  0  0  0  0  0  0  0  0
   11.1655    2.9544   28.0958 O   0  0  0  0  0  0  0  0  0  0  0  0
   12.9186    7.4960   25.1466 C   0  0  0  0  0  0  0  0  0  0  0  0
    7.5389    4.7312   25.2763 C   0  0  0  0  0  0  0  0  0  0  0  0
    8.0096    7.0583   24.4307 C   0  0  0  0  0  0  0  0  0  0  0  0
    9.1412    2.1188   28.3637 N   0  0  0  0  0  0  0  0  0  0  0  0
  1  2  2  0
  2  3  1  0
  4  2  1  6
  4  5  1  0
  4  6  1  0
  6  7  1  6
  7  8  1  0
  7  9  1  1
  8 10  1  0
  5 11  1  6
  6 12  1  0
  8 13  1  0
 13 14  2  0
  5 15  1  0
 13 16  1  0
 11 17  2  0
  9 18  1  0
 16 18  1  0
 12 19  1  1
 15 19  1  0
 10 20  1  0
 12 20  1  0
 11 21  1  0
M  END
$$$$
91
     RDKit          3D

 21 23  0  0  0  0  0  0  0  0999 V2000
   12.0202    2.9861   24.6830 O   0  0  0  0  0  0  0  0  0  0  0  0
   11.2661    3.9801   24.8427 C   0  0  0  0  0  0  0  0  0  0  0  0
   10.5155    4.4162   23.8512 C   0  0  0  0  0  0  0  0  0  0  0  0
   10.9378    4.3500   26.1759 N   0  0  0  0  0  0  0  0  0  0  0  0
    9.5732    5.4443   24.0623 C   0  0  0  0  0  0  0  0  0  0  0  0
    9.3128    5.9563   25.3539 N   0  0  0  0  0  0  0  0  0  0  0  0
    8.4225    7.0062   25.6076 C   0  0  0  0  0  0  0  0  0  0  0  0
   10.1084    5.4218   26.3831 C   0  0  1  0  0  0  0  0  0  0  0  0
    7.9408    7.6119   24.6508 O   0  0  0  0  0  0  0  0  0  0  0  0
    8.2486    7.2349   26.9529 C   0  0  0  0  0  0  0  0  0  0  0  0
    9.0204    6.7190   28.0043 C   0  0  2  0  0  0  0  0  0  0  0  0
    9.6831    5.8123   27.6247 N   0  0  0  0  0  0  0  0  0  0  0  0
    8.5360    6.9441   29.2703 O   0  0  0  0  0  0  0  0  0  0  0  0
    9.1916    7.8727   30.0693 C   0  0  0  0  0  0  0  0  0  0  0  0
    8.4769    8.2665   31.1108 F   0  0  0  0  0  0  0  0  0  0  0  0
    9.4337    9.0276   29.2422 F   0  0  0  0  0  0  0  0  0  0  0  0
   10.5924    5.0944   28.7570 C   0  0  1  0  0  0  0  0  0  0  0  0
   10.7093    3.7746   28.5321 O   0  0  0  0  0  0  0  0  0  0  0  0
   11.8688    5.8909   28.9112 C   0  0  0  0  0  0  0  0  0  0  0  0
   10.3720    7.4691   30.6551 F   0  0  0  0  0  0  0  0  0  0  0  0
   10.2456    3.4336   27.1600 C   0  0  0  0  0  0  0  0  0  0  0  0
  1  2  2  0
  2  3  1  0
  2  4  1  0
  3  5  1  0
  5  6  1  0
  6  7  1  0
  8  4  1  1
  6  8  1  0
  7  9  2  0
  7 10  1  0
 10 11  1  0
  8 12  1  0
 11 12  1  0
 11 13  1  1
 13 14  1  0
 14 15  1  0
 14 16  1  0
 12 17  1  0
 17 18  1  0
 17 19  1  6
 14 20  1  0
  4 21  1  0
 18 21  1  0
M  END
$$$$
92
     RDKit          3D

 21 23  0  0  0  0  0  0  0  0999 V2000
    9.8581    7.9078   30.6039 C   0  0  0  0  0  0  0  0  0  0  0  0
    8.5522    7.8503   30.3030 C   0  0  2  0  0  0  0  0  0  0  0  0
   10.8417    7.4967   29.7624 N   0  0  0  0  0  0  0  0  0  0  0  0
   10.3715    6.9188   28.6604 C   0  0  0  0  0  0  0  0  0  0  0  0
    7.5714    8.3475   31.2458 O   0  0  0  0  0  0  0  0  0  0  0  0
    8.1925    7.1783   29.1548 C   0  0  0  0  0  0  0  0  0  0  0  0
    6.7380    6.9560   28.8532 O   0  0  0  0  0  0  0  0  0  0  0  0
   11.4352    6.4957   27.7352 N   0  0  0  0  0  0  0  0  0  0  0  0
    9.1142    6.7025   28.3052 C   0  0  0  0  0  0  0  0  0  0  0  0
    9.0470    5.9309   27.0712 C   0  0  0  0  0  0  0  0  0  0  0  0
   10.6606    5.8461   26.6763 C   0  0  2  0  0  0  0  0  0  0  0  0
    6.2771    5.7605   28.9127 C   0  0  1  0  0  0  0  0  0  0  0  0
    5.4138    5.4529   27.9356 C   0  0  0  0  0  0  0  0  0  0  0  0
    7.3611    4.6603   28.9883 O   0  0  0  0  0  0  0  0  0  0  0  0
   11.1965    4.5518   26.3327 C   0  0  0  0  0  0  0  0  0  0  0  0
    6.8208    3.3959   28.4933 C   0  0  1  0  0  0  0  0  0  0  0  0
   10.0937    3.5766   25.9578 C   0  0  0  0  0  0  0  0  0  0  0  0
    5.6818    3.8094   27.6226 C   0  0  0  0  0  0  0  0  0  0  0  0
    7.5908    2.4027   28.6402 C   0  0  0  0  0  0  0  0  0  0  0  0
   12.3889    4.2503   26.2225 O   0  0  0  0  0  0  0  0  0  0  0  0
   10.5142    2.4238   25.2647 N   0  0  0  0  0  0  0  0  0  0  0  0
  1  2  1  0
  1  3  1  0
  3  4  1  0
  2  5  1  1
  2  6  1  0
  6  7  1  0
  4  8  1  0
  4  9  1  0
  6  9  1  0
  9 10  1  0
  8 11  1  0
 10 11  1  0
 12  7  1  6
 12 13  1  0
 12 14  1  0
 11 15  1  1
 14 16  1  0
 15 17  1  0
 13 18  1  0
 16 18  1  0
 16 19  1  6
 15 20  2  0
 17 21  1  0
M  END
$$$$
93
     RDKit          3D

 21 24  0  0  0  0  0  0  0  0999 V2000
    9.4190    8.2745   30.7731 C   0  0  0  0  0  0  0  0  0  0  0  0
   10.4078    7.7179   30.0707 O   0  0  0  0  0  0  0  0  0  0  0  0
   10.1025    7.1896   28.9620 C   0  0  1  0  0  0  0  0  0  0  0  0
   11.0205    6.4837   28.0852 C   0  0  1  0  0  0  0  0  0  0  0  0
    8.6773    6.8927   28.7343 C   0  0  1  0  0  0  0  0  0  0  0  0
   12.4067    6.6102   28.2861 O   0  0  0  0  0  0  0  0  0  0  0  0
    8.1019    8.1327   30.4810 C   0  0  0  0  0  0  0  0  0  0  0  0
    7.8489    7.4927   29.4188 C   0  0  0  0  0  0  0  0  0  0  0  0
   10.5885    5.3010   27.5193 C   0  0  2  0  0  0  0  0  0  0  0  0
    8.3841    5.9343   27.6016 C   0  0  0  0  0  0  0  0  0  0  0  0
   11.7000    4.5621   26.7143 O   0  0  0  0  0  0  0  0  0  0  0  0
   11.3020    4.3537   25.4512 C   0  0  1  0  0  0  0  0  0  0  0  0
    9.3259    5.2270   27.0551 C   0  0  0  0  0  0  0  0  0  0  0  0
    6.9452    5.8641   27.0808 C   0  0  0  0  0  0  0  0  0  0  0  0
    9.0524    4.2541   25.9322 C   0  0  2  0  0  0  0  0  0  0  0  0
   10.1170    3.6221   25.2707 C   0  0  0  0  0  0  0  0  0  0  0  0
    6.7000    4.8986   26.1645 C   0  0  2  0  0  0  0  0  0  0  0  0
    7.7441    4.2644   25.4817 N   0  0  0  0  0  0  0  0  0  0  0  0
    5.3063    4.8167   25.6542 O   0  0  0  0  0  0  0  0  0  0  0  0
    4.5609    5.9438   25.8795 C   0  0  0  0  0  0  0  0  0  0  0  0
   11.4136    5.5403   24.5760 C   0  0  0  0  0  0  0  0  0  0  0  0
  1  2  1  0
  3  2  1  1
  3  4  1  0
  3  5  1  0
  4  6  1  1
  1  7  1  0
  5  8  1  6
  7  8  1  0
  4  9  1  0
  5 10  1  0
  9 11  1  6
 11 12  1  0
  9 13  1  0
 10 13  1  0
 10 14  1  0
 13 15  1  0
 12 16  1  0
 15 16  1  6
 14 17  1  0
 15 18  1  0
 17 18  1  0
 17 19  1  6
 19 20  1  0
 12 21  1  1
M  END
$$$$
94
     RDKit          3D

 21 23  0  0  0  0  0  0  0  0999 V2000
    8.3364    9.2832   30.6734 C   0  0  0  0  0  0  0  0  0  0  0  0
    9.1267    8.3468   30.1494 C   0  0  0  0  0  0  0  0  0  0  0  0
    7.0620    9.0450   30.7768 O   0  0  0  0  0  0  0  0  0  0  0  0
   10.2977    7.8470   30.7312 O   0  0  0  0  0  0  0  0  0  0  0  0
    9.0132    7.9056   28.7911 N   0  0  0  0  0  0  0  0  0  0  0  0
    9.5285    6.8991   28.2106 C   0  0  2  0  0  0  0  0  0  0  0  0
    8.9555    5.6584   28.3699 C   0  0  0  0  0  0  0  0  0  0  0  0
    9.4642    4.4535   27.6765 C   0  0  2  0  0  0  0  0  0  0  0  0
    8.9578    3.1258   27.8900 C   0  0  0  0  0  0  0  0  0  0  0  0
    7.8950    5.4100   29.1381 C   0  0  0  0  0  0  0  0  0  0  0  0
    9.5906    2.0516   27.1501 C   0  0  0  0  0  0  0  0  0  0  0  0
    7.8960    3.0277   28.7436 C   0  0  0  0  0  0  0  0  0  0  0  0
   10.9067    6.7385   27.7284 C   0  0  2  0  0  0  0  0  0  0  0  0
   10.6098    4.4950   27.0059 C   0  0  2  0  0  0  0  0  0  0  0  0
    7.2977    4.1038   29.3047 C   0  0  0  0  0  0  0  0  0  0  0  0
   11.6108    8.0323   27.6454 O   0  0  0  0  0  0  0  0  0  0  0  0
   11.3734    5.8019   26.9709 C   0  0  2  0  0  0  0  0  0  0  0  0
   12.6960    6.0416   26.2165 C   0  0  0  0  0  0  0  0  0  0  0  0
    9.0622    0.8602   27.2927 O   0  0  0  0  0  0  0  0  0  0  0  0
   10.6026    2.2416   26.2724 N   0  0  0  0  0  0  0  0  0  0  0  0
   11.1518    3.4608   26.1610 C   0  0  0  0  0  0  0  0  0  0  0  0
  1  2  1  0
  1  3  1  0
  2  4  2  0
  2  5  1  0
  6  5  1  1
  6  7  1  0
  8  7  1  1
  8  9  1  0
  7 10  1  0
  9 11  1  0
  9 12  1  0
  6 13  1  0
  8 14  1  0
 10 15  1  0
 12 15  1  0
 13 16  1  6
 13 17  1  0
 14 17  1  0
 17 18  1  1
 11 19  2  0
 11 20  1  0
 14 21  1  6
 20 21  1  0
M  END
$$$$
95
     RDKit          3D

 21 24  0  0  0  0  0  0  0  0999 V2000
    9.8581    7.9078   30.6039 C   0  0  0  0  0  0  0  0  0  0  0  0
    8.5522    7.8503   30.3030 C   0  0  0  0  0  0  0  0  0  0  0  0
   10.6685    7.5469   29.6445 N   0  0  0  0  0  0  0  0  0  0  0  0
    8.1354    7.3020   29.0896 C   0  0  0  0  0  0  0  0  0  0  0  0
    9.0311    6.8216   28.1900 C   0  0  2  0  0  0  0  0  0  0  0  0
   10.3973    7.0110   28.5164 C   0  0  0  0  0  0  0  0  0  0  0  0
   11.5400    6.6169   27.5587 N   0  0  0  0  0  0  0  0  0  0  0  0
    8.7737    6.2337   26.8008 C   0  0  2  0  0  0  0  0  0  0  0  0
    9.8768    5.8947   26.0215 C   0  0  1  0  0  0  0  0  0  0  0  0
    7.5706    6.1355   26.1010 N   0  0  0  0  0  0  0  0  0  0  0  0
    9.5095    5.3136   24.7846 C   0  0  2  0  0  0  0  0  0  0  0  0
    6.3486    6.4415   26.5232 C   0  0  0  0  0  0  0  0  0  0  0  0
   11.2821    6.2032   26.3345 C   0  0  2  0  0  0  0  0  0  0  0  0
    7.9513    5.7901   24.7915 C   0  0  0  0  0  0  0  0  0  0  0  0
    9.6251    3.7917   24.8888 C   0  0  0  0  0  0  0  0  0  0  0  0
   12.2558    5.2257   25.7597 C   0  0  0  0  0  0  0  0  0  0  0  0
    5.4262    6.3680   25.6365 O   0  0  0  0  0  0  0  0  0  0  0  0
    6.0205    6.6757   27.7719 O   0  0  0  0  0  0  0  0  0  0  0  0
   10.9444    3.3194   25.1095 C   0  0  0  0  0  0  0  0  0  0  0  0
    4.6550    5.3014   25.3428 C   0  0  0  0  0  0  0  0  0  0  0  0
   12.0125    4.0524   25.5469 C   0  0  0  0  0  0  0  0  0  0  0  0
  1  2  1  0
  1  3  1  0
  2  4  1  0
  5  4  1  6
  3  6  1  0
  5  6  1  0
  6  7  1  0
  5  8  1  0
  8  9  1  0
  8 10  1  6
  9 11  1  6
 10 12  1  0
  7 13  1  0
  9 13  1  0
 10 14  1  0
 11 14  1  1
 11 15  1  0
 13 16  1  1
 12 17  1  0
 12 18  2  0
 15 19  1  0
 17 20  1  0
 16 21  1  0
 19 21  1  0
M  END
$$$$
96
     RDKit          3D

 21 24  0  0  0  0  0  0  0  0999 V2000
    9.8581    7.9078   30.6039 C   0  0  0  0  0  0  0  0  0  0  0  0
    8.5522    7.8503   30.3030 C   0  0  2  0  0  0  0  0  0  0  0  0
   10.8417    7.4967   29.7624 N   0  0  0  0  0  0  0  0  0  0  0  0
   10.3715    6.9188   28.6604 C   0  0  0  0  0  0  0  0  0  0  0  0
    7.5714    8.3475   31.2458 O   0  0  0  0  0  0  0  0  0  0  0  0
    8.1925    7.1783   29.1548 C   0  0  0  0  0  0  0  0  0  0  0  0
    6.7380    6.9560   28.8532 O   0  0  0  0  0  0  0  0  0  0  0  0
   11.4352    6.4957   27.7352 N   0  0  0  0  0  0  0  0  0  0  0  0
    9.1142    6.7025   28.3052 C   0  0  0  0  0  0  0  0  0  0  0  0
    9.0470    5.9309   27.0712 C   0  0  0  0  0  0  0  0  0  0  0  0
   10.6606    5.8461   26.6763 C   0  0  2  0  0  0  0  0  0  0  0  0
    6.2771    5.7605   28.9127 C   0  0  1  0  0  0  0  0  0  0  0  0
    5.4138    5.4529   27.9356 C   0  0  0  0  0  0  0  0  0  0  0  0
    7.3611    4.6603   28.9883 O   0  0  0  0  0  0  0  0  0  0  0  0
   11.1965    4.5518   26.3327 C   0  0  0  0  0  0  0  0  0  0  0  0
    6.8208    3.3959   28.4933 C   0  0  2  0  0  0  0  0  0  0  0  0
    7.7317    2.6610   27.8421 C   0  0  0  0  0  0  0  0  0  0  0  0
    8.9416    2.6623   28.0564 C   0  0  0  0  0  0  0  0  0  0  0  0
    5.4435    3.8716   27.8201 C   0  0  0  0  0  0  0  0  0  0  0  0
   10.2336    3.6275   25.8154 O   0  0  0  0  0  0  0  0  0  0  0  0
    9.8767    2.3671   26.7474 C   0  0  0  0  0  0  0  0  0  0  0  0
  1  2  1  0
  1  3  1  0
  3  4  1  0
  2  5  1  1
  2  6  1  0
  6  7  1  0
  4  8  1  0
  4  9  1  0
  6  9  1  0
  9 10  1  0
  8 11  1  0
 10 11  1  0
  7 12  1  0
 12 13  1  6
 12 14  1  0
 11 15  1  1
 14 16  1  0
 16 17  1  6
 17 18  1  0
 13 19  1  0
 16 19  1  0
 15 20  1  0
 18 21  1  0
 20 21  1  0
M  END
$$$$
97
     RDKit          3D

 21 25  0  0  0  0  0  0  0  0999 V2000
    9.3684    8.5221   30.9427 C   0  0  0  0  0  0  0  0  0  0  0  0
    8.1654    8.3991   30.3867 C   0  0  0  0  0  0  0  0  0  0  0  0
    8.0629    7.6557   29.1734 C   0  0  2  0  0  0  0  0  0  0  0  0
    6.7708    7.4374   28.5890 O   0  0  0  0  0  0  0  0  0  0  0  0
    9.0950    7.0323   28.4845 C   0  0  0  0  0  0  0  0  0  0  0  0
   10.3918    7.1894   29.0870 C   0  0  2  0  0  0  0  0  0  0  0  0
   11.5107    6.5536   28.5062 N   0  0  0  0  0  0  0  0  0  0  0  0
   10.5170    7.8020   30.3634 N   0  0  0  0  0  0  0  0  0  0  0  0
    8.9681    6.3038   27.2489 C   0  0  2  0  0  0  0  0  0  0  0  0
    6.5227    6.3343   27.9368 C   0  0  0  0  0  0  0  0  0  0  0  0
    7.6018    6.0112   26.9502 C   0  0  2  0  0  0  0  0  0  0  0  0
   11.3820    6.0598   27.2288 C   0  0  2  0  0  0  0  0  0  0  0  0
   10.0661    5.8249   26.6563 C   0  0  2  0  0  0  0  0  0  0  0  0
    7.3756    4.8873   26.0825 C   0  0  1  0  0  0  0  0  0  0  0  0
    6.0526    4.7041   25.6280 F   0  0  0  0  0  0  0  0  0  0  0  0
   12.6334    5.6951   26.4111 C   0  0  0  0  0  0  0  0  0  0  0  0
    9.9126    5.1250   25.3952 C   0  0  1  0  0  0  0  0  0  0  0  0
    8.4158    4.9929   24.9652 C   0  0  0  0  0  0  0  0  0  0  0  0
   13.7369    6.1249   26.9506 O   0  0  0  0  0  0  0  0  0  0  0  0
   10.9509    4.7703   24.5047 C   0  0  0  0  0  0  0  0  0  0  0  0
   12.3178    4.9543   25.1725 C   0  0  0  0  0  0  0  0  0  0  0  0
  1  2  1  0
  3  2  1  1
  3  4  1  0
  3  5  1  0
  5  6  1  0
  6  7  1  1
  1  8  1  0
  6  8  1  0
  9  5  1  1
  4 10  1  0
  9 11  1  0
 11 10  1  1
 12  7  1  1
  9 13  1  0
 13 12  1  6
 11 14  1  0
 14 15  1  6
 12 16  1  0
 13 17  1  0
 14 18  1  0
 17 18  1  6
 16 19  1  0
 17 20  1  0
 16 21  1  0
 20 21  1  0
M  END
$$$$
98
     RDKit          3D

 21 24  0  0  0  0  0  0  0  0999 V2000
    9.4190    8.2745   30.7731 C   0  0  0  0  0  0  0  0  0  0  0  0
    8.2593    8.0434   30.2826 C   0  0  0  0  0  0  0  0  0  0  0  0
    8.1861    7.2264   29.1186 C   0  0  2  0  0  0  0  0  0  0  0  0
   10.6463    7.8373   30.2115 N   0  0  0  0  0  0  0  0  0  0  0  0
    6.9849    8.5228   30.8605 O   0  0  0  0  0  0  0  0  0  0  0  0
    6.8578    6.8131   28.5854 C   0  0  0  0  0  0  0  0  0  0  0  0
    9.3614    6.7316   28.4892 C   0  0  1  0  0  0  0  0  0  0  0  0
   10.5572    7.0779   29.1392 C   0  0  0  0  0  0  0  0  0  0  0  0
   11.7557    6.5723   28.5855 N   0  0  0  0  0  0  0  0  0  0  0  0
    6.9281    5.9858   27.3917 C   0  0  2  0  0  0  0  0  0  0  0  0
    5.6388    5.5766   26.8161 C   0  0  0  0  0  0  0  0  0  0  0  0
    9.6801    5.8599   27.3339 C   0  0  2  0  0  0  0  0  0  0  0  0
    8.1960    5.5013   26.8528 C   0  0  2  0  0  0  0  0  0  0  0  0
   10.9963    5.6473   27.1483 C   0  0  1  0  0  0  0  0  0  0  0  0
   11.2126    5.8994   25.8124 C   0  0  0  0  0  0  0  0  0  0  0  0
    5.6420    5.2469   25.5338 O   0  0  0  0  0  0  0  0  0  0  0  0
    4.5204    5.7952   27.4099 O   0  0  0  0  0  0  0  0  0  0  0  0
    8.3318    4.6159   25.6887 C   0  0  0  0  0  0  0  0  0  0  0  0
    9.4229    4.4612   24.9492 C   0  0  0  0  0  0  0  0  0  0  0  0
   10.8687    4.4169   25.2538 C   0  0  1  0  0  0  0  0  0  0  0  0
   11.7986    4.0978   24.1533 O   0  0  0  0  0  0  0  0  0  0  0  0
  1  2  1  0
  2  3  1  0
  1  4  1  0
  2  5  1  0
  3  6  1  1
  3  7  1  0
  4  8  1  0
  7  8  1  1
  8  9  1  0
  6 10  1  0
 10 11  1  1
  7 12  1  0
 10 13  1  0
 12 13  1  0
  9 14  1  0
 12 14  1  1
 14 15  1  6
 11 16  2  0
 11 17  1  0
 13 18  1  6
 18 19  1  0
 15 20  1  0
 19 20  1  0
 20 21  1  6
M  END
$$$$
99
     RDKit          3D

 21 23  0  0  0  0  0  0  0  0999 V2000
    9.8581    7.9078   30.6039 C   0  0  0  0  0  0  0  0  0  0  0  0
    8.5522    7.8503   30.3030 C   0  0  2  0  0  0  0  0  0  0  0  0
   10.8417    7.4967   29.7624 N   0  0  0  0  0  0  0  0  0  0  0  0
   10.3715    6.9188   28.6604 C   0  0  0  0  0  0  0  0  0  0  0  0
    7.5714    8.3475   31.2458 O   0  0  0  0  0  0  0  0  0  0  0  0
    8.1925    7.1783   29.1548 C   0  0  0  0  0  0  0  0  0  0  0  0
    6.7380    6.9560   28.8532 O   0  0  0  0  0  0  0  0  0  0  0  0
   11.4352    6.4957   27.7352 N   0  0  0  0  0  0  0  0  0  0  0  0
    9.1142    6.7025   28.3052 C   0  0  0  0  0  0  0  0  0  0  0  0
    9.0470    5.9309   27.0712 C   0  0  0  0  0  0  0  0  0  0  0  0
   10.6606    5.8461   26.6763 C   0  0  2  0  0  0  0  0  0  0  0  0
    6.2771    5.7605   28.9127 C   0  0  1  0  0  0  0  0  0  0  0  0
    5.4138    5.4529   27.9356 C   0  0  1  0  0  0  0  0  0  0  0  0
    7.3611    4.6603   28.9883 O   0  0  0  0  0  0  0  0  0  0  0  0
   11.1965    4.5518   26.3327 C   0  0  0  0  0  0  0  0  0  0  0  0
    6.8208    3.3959   28.4933 C   0  0  0  0  0  0  0  0  0  0  0  0
    5.5528    5.8290   26.7375 O   0  0  0  0  0  0  0  0  0  0  0  0
    4.4804    4.3423   28.1246 O   0  0  0  0  0  0  0  0  0  0  0  0
   10.1285    3.5946   25.9301 O   0  0  0  0  0  0  0  0  0  0  0  0
   12.2308    4.2369   26.1189 O   0  0  0  0  0  0  0  0  0  0  0  0
    5.6031    3.2623   27.9533 C   0  0  0  0  0  0  0  0  0  0  0  0
  1  2  1  0
  1  3  1  0
  3  4  1  0
  2  5  1  1
  2  6  1  0
  6  7  1  0
  4  8  1  0
  4  9  1  0
  6  9  1  0
  9 10  1  0
  8 11  1  0
 10 11  1  0
 12  7  1  6
 12 13  1  0
 12 14  1  0
 11 15  1  1
 14 16  1  0
 13 17  1  6
 13 18  1  0
 15 19  1  0
 15 20  2  0
 16 21  1  0
 18 21  1  0
M  END
$$$$
