0
     RDKit          3D

 10 11  0  0  0  0  0  0  0  0999 V2000
   11.2520  -11.9242   23.2281 C   0  0  0  0  0  0  0  0  0  0  0  0
   11.4217  -10.7391   23.6597 C   0  0  2  0  0  0  0  0  0  0  0  0
   12.4382  -10.2532   23.2346 C   0  0  0  0  0  0  0  0  0  0  0  0
   13.0987  -10.8432   22.0782 C   0  0  2  0  0  0  0  0  0  0  0  0
   12.2975  -12.3388   22.2439 C   0  0  2  0  0  0  0  0  0  0  0  0
   12.5063  -13.3503   21.4203 C   0  0  0  0  0  0  0  0  0  0  0  0
   13.4733  -13.1730   20.3420 C   0  0  0  0  0  0  0  0  0  0  0  0
   10.6920  -10.2469   24.8305 O   0  0  0  0  0  0  0  0  0  0  0  0
   14.0320  -11.9560   20.1410 N   0  0  0  0  0  0  0  0  0  0  0  0
   13.9346  -11.0563   21.0826 C   0  0  0  0  0  0  0  0  0  0  0  0
  1  2  1  0
  2  3  1  0
  4  3  1  1
  5  1  1  6
  4  5  1  0
  5  6  1  0
  6  7  1  0
  2  8  1  1
  7  9  1  0
  4 10  1  0
  9 10  1  0
M  END
$$$$
1
     RDKit          3D

 10 11  0  0  0  0  0  0  0  0999 V2000
   10.9601  -11.8532   24.5194 C   0  0  0  0  0  0  0  0  0  0  0  0
   11.4455  -12.6689   23.5262 N   0  0  0  0  0  0  0  0  0  0  0  0
   11.1685  -10.5286   24.3245 C   0  0  0  0  0  0  0  0  0  0  0  0
   12.2049  -12.2640   22.5656 C   0  0  2  0  0  0  0  0  0  0  0  0
   12.8017  -13.0940   21.6182 C   0  0  0  0  0  0  0  0  0  0  0  0
   12.5596  -10.8987   22.4456 C   0  0  2  0  0  0  0  0  0  0  0  0
   12.0389  -10.0063   23.4058 C   0  0  0  0  0  0  0  0  0  0  0  0
   13.4502  -12.6285   20.5606 C   0  0  0  0  0  0  0  0  0  0  0  0
   13.3396  -10.4938   21.3613 C   0  0  0  0  0  0  0  0  0  0  0  0
   13.7545  -11.2967   20.4117 C   0  0  0  0  0  0  0  0  0  0  0  0
  1  2  1  0
  1  3  1  0
  2  4  1  0
  4  5  1  1
  4  6  1  0
  3  7  1  0
  6  7  1  6
  5  8  1  0
  6  9  1  0
  8 10  1  0
  9 10  1  0
M  END
$$$$
10
     RDKit          3D

 13 14  0  0  0  0  0  0  0  0999 V2000
   20.5422  -13.8875   26.0318 C   0  0  0  0  0  0  0  0  0  0  0  0
   20.2847  -13.9803   24.7433 C   0  0  0  0  0  0  0  0  0  0  0  0
   20.1912  -14.9394   26.7368 C   0  0  0  0  0  0  0  0  0  0  0  0
   19.5339  -14.9825   24.0813 C   0  0  0  0  0  0  0  0  0  0  0  0
   19.0753  -16.0323   24.9604 C   0  0  0  0  0  0  0  0  0  0  0  0
   19.3988  -16.0382   26.2781 C   0  0  0  0  0  0  0  0  0  0  0  0
   19.2593  -14.9265   22.5566 C   0  0  2  0  0  0  0  0  0  0  0  0
   19.8349  -14.0580   21.7826 C   0  0  0  0  0  0  0  0  0  0  0  0
   19.7139  -13.9188   20.3720 C   0  0  1  0  0  0  0  0  0  0  0  0
   18.0867  -15.5692   22.0331 C   0  0  0  0  0  0  0  0  0  0  0  0
   18.4457  -14.5838   19.8978 C   0  0  0  0  0  0  0  0  0  0  0  0
   20.2794  -13.0679   19.4602 C   0  0  0  0  0  0  0  0  0  0  0  0
   17.7418  -15.4113   20.7598 C   0  0  0  0  0  0  0  0  0  0  0  0
  1  2  1  0
  1  3  1  0
  2  4  1  0
  4  5  1  0
  3  6  1  0
  5  6  1  0
  7  4  1  1
  7  8  1  0
  8  9  1  0
  7 10  1  0
  9 11  1  0
  9 12  1  1
 10 13  1  0
 11 13  1  0
M  END
$$$$
100
     RDKit          3D

 28 33  0  0  0  0  0  0  0  0999 V2000
   14.9095  -12.2473   17.3962 C   0  0  2  0  0  0  0  0  0  0  0  0
   14.0706  -12.2957   18.1947 N   0  0  0  0  0  0  0  0  0  0  0  0
   16.2463  -12.7868   17.7363 C   0  0  0  0  0  0  0  0  0  0  0  0
   16.1606  -13.2094   19.0530 C   0  0  2  0  0  0  0  0  0  0  0  0
   14.7735  -11.5162   16.0879 N   0  0  0  0  0  0  0  0  0  0  0  0
   17.1803  -13.8818   19.8648 C   0  0  2  0  0  0  0  0  0  0  0  0
   14.8108  -12.9766   19.4967 C   0  0  2  0  0  0  0  0  0  0  0  0
   13.8372  -13.2442   20.5775 C   0  0  2  0  0  0  0  0  0  0  0  0
   13.1141  -12.2515   21.1219 C   0  0  0  0  0  0  0  0  0  0  0  0
   13.8977  -14.5024   21.1344 C   0  0  2  0  0  0  0  0  0  0  0  0
   14.6683  -15.5944   20.6262 O   0  0  0  0  0  0  0  0  0  0  0  0
   17.0242  -14.8637   20.6649 N   0  0  0  0  0  0  0  0  0  0  0  0
   15.8312  -15.7747   21.0078 C   0  0  1  0  0  0  0  0  0  0  0  0
   16.3978  -16.5369   22.2158 C   0  0  0  0  0  0  0  0  0  0  0  0
   18.1597  -15.4049   21.4879 C   0  0  1  0  0  0  0  0  0  0  0  0
   18.5031  -13.1985   19.7208 C   0  0  0  0  0  0  0  0  0  0  0  0
   19.6679  -13.7003   20.3781 C   0  0  1  0  0  0  0  0  0  0  0  0
   20.8919  -13.0793   20.1820 C   0  0  0  0  0  0  0  0  0  0  0  0
   13.1982  -10.7857   20.7416 N   0  0  0  0  0  0  0  0  0  0  0  0
   12.1561  -12.4562   22.1441 C   0  0  2  0  0  0  0  0  0  0  0  0
   11.5306  -11.3944   22.7037 C   0  0  2  0  0  0  0  0  0  0  0  0
   12.8355  -14.7698   22.0511 C   0  0  0  0  0  0  0  0  0  0  0  0
   19.4177  -14.7034   21.3352 C   0  0  0  0  0  0  0  0  0  0  0  0
   12.0291  -13.7768   22.5680 C   0  0  0  0  0  0  0  0  0  0  0  0
   12.2700  -10.1377   21.5826 C   0  0  0  0  0  0  0  0  0  0  0  0
   11.7561  -11.0309   24.0456 C   0  0  0  0  0  0  0  0  0  0  0  0
   10.9276  -11.6819   24.9211 N   0  0  0  0  0  0  0  0  0  0  0  0
   17.7574  -16.3350   22.3671 C   0  0  0  0  0  0  0  0  0  0  0  0
  1  2  1  0
  1  3  1  0
  4  3  1  6
  1  5  1  1
  4  6  1  0
  7  2  1  6
  4  7  1  0
  7  8  1  0
  8  9  1  1
  8 10  1  0
 10 11  1  0
  6 12  1  0
 11 13  1  0
 12 13  1  0
 13 14  1  1
 12 15  1  0
  6 16  1  1
 16 17  1  0
 17 18  1  1
  9 19  1  0
  9 20  1  0
 20 21  1  0
 10 22  1  6
 15 23  1  1
 17 23  1  0
 20 24  1  1
 22 24  1  0
 19 25  1  0
 21 25  1  0
 21 26  1  1
 26 27  1  0
 14 28  1  0
 15 28  1  0
M  END
$$$$
101
     RDKit          3D

 28 31  0  0  0  0  0  0  0  0999 V2000
   20.1888  -13.6142   20.2995 C   0  0  0  0  0  0  0  0  0  0  0  0
   19.2085  -13.7827   21.1679 C   0  0  1  0  0  0  0  0  0  0  0  0
   19.3001  -14.1798   22.4331 C   0  0  0  0  0  0  0  0  0  0  0  0
   17.8562  -13.2984   20.7269 C   0  0  1  0  0  0  0  0  0  0  0  0
   18.3654  -14.4082   23.1134 C   0  0  0  0  0  0  0  0  0  0  0  0
   20.1271  -13.0811   18.9953 C   0  0  0  0  0  0  0  0  0  0  0  0
   17.6193  -12.6669   19.4970 C   0  0  0  0  0  0  0  0  0  0  0  0
   17.0152  -14.1549   22.6981 C   0  0  0  0  0  0  0  0  0  0  0  0
   18.5671  -12.8418   18.6333 C   0  0  0  0  0  0  0  0  0  0  0  0
   16.8524  -13.6105   21.5171 C   0  0  0  0  0  0  0  0  0  0  0  0
   18.3766  -14.9625   24.6156 C   0  0  2  0  0  0  0  0  0  0  0  0
   15.3547  -13.3119   21.1284 C   0  0  1  0  0  0  0  0  0  0  0  0
   19.5160  -14.4923   25.3653 C   0  0  0  0  0  0  0  0  0  0  0  0
   14.5660  -14.3049   20.7844 C   0  0  1  0  0  0  0  0  0  0  0  0
   17.6100  -15.9245   25.0961 C   0  0  1  0  0  0  0  0  0  0  0  0
   19.7288  -15.0183   26.6277 C   0  0  1  0  0  0  0  0  0  0  0  0
   14.8697  -15.7018   20.8354 O   0  0  0  0  0  0  0  0  0  0  0  0
   16.5148  -16.4877   24.3763 O   0  0  0  0  0  0  0  0  0  0  0  0
   17.8891  -16.4978   26.3241 C   0  0  0  0  0  0  0  0  0  0  0  0
   14.6793  -12.2274   21.7545 C   0  0  0  0  0  0  0  0  0  0  0  0
   18.8993  -16.0569   27.0716 C   0  0  0  0  0  0  0  0  0  0  0  0
   14.4655  -16.5835   21.6017 C   0  0  0  0  0  0  0  0  0  0  0  0
   13.1912  -14.1122   20.3448 C   0  0  1  0  0  0  0  0  0  0  0  0
   13.4360  -11.8174   21.2710 C   0  0  1  0  0  0  0  0  0  0  0  0
   12.4070  -15.0862   19.7944 C   0  0  0  0  0  0  0  0  0  0  0  0
   12.6602  -12.7992   20.6237 C   0  0  0  0  0  0  0  0  0  0  0  0
   21.0653  -14.5113   27.5554 Cl  0  0  0  0  0  0  0  0  0  0  0  0
   12.8968  -10.2520   21.5569 Cl  0  0  0  0  0  0  0  0  0  0  0  0
  2  1  1  1
  2  3  1  0
  2  4  1  0
  3  5  1  0
  1  6  1  0
  4  7  1  6
  5  8  1  0
  6  9  1  0
  7  9  1  0
  4 10  1  0
  8 10  1  0
 11  5  1  6
 12 10  1  1
 11 13  1  0
 12 14  1  0
 11 15  1  0
 13 16  1  0
 14 17  1  1
 15 18  1  6
 15 19  1  0
 12 20  1  0
 16 21  1  0
 19 21  1  0
 17 22  1  0
 14 23  1  0
 20 24  1  0
 23 25  1  1
 23 26  1  0
 24 26  1  0
 16 27  1  6
 24 28  1  1
M  END
$$$$
102
     RDKit          3D

 28 32  0  0  0  0  0  0  0  0999 V2000
   14.9095  -12.2473   17.3962 C   0  0  2  0  0  0  0  0  0  0  0  0
   14.0706  -12.2957   18.1947 N   0  0  0  0  0  0  0  0  0  0  0  0
   16.2463  -12.7868   17.7363 C   0  0  0  0  0  0  0  0  0  0  0  0
   16.1606  -13.2094   19.0530 C   0  0  2  0  0  0  0  0  0  0  0  0
   14.7735  -11.5162   16.0879 N   0  0  0  0  0  0  0  0  0  0  0  0
   17.1803  -13.8818   19.8648 C   0  0  2  0  0  0  0  0  0  0  0  0
   14.8108  -12.9766   19.4967 C   0  0  2  0  0  0  0  0  0  0  0  0
   13.8372  -13.2442   20.5775 C   0  0  2  0  0  0  0  0  0  0  0  0
   13.1141  -12.2515   21.1219 C   0  0  0  0  0  0  0  0  0  0  0  0
   13.8977  -14.5024   21.1344 C   0  0  2  0  0  0  0  0  0  0  0  0
   14.6683  -15.5944   20.6262 O   0  0  0  0  0  0  0  0  0  0  0  0
   17.0242  -14.8637   20.6649 N   0  0  0  0  0  0  0  0  0  0  0  0
   15.8312  -15.7747   21.0078 C   0  0  1  0  0  0  0  0  0  0  0  0
   16.3978  -16.5369   22.2158 C   0  0  2  0  0  0  0  0  0  0  0  0
   18.1597  -15.4049   21.4879 C   0  0  1  0  0  0  0  0  0  0  0  0
   18.5031  -13.1985   19.7208 C   0  0  0  0  0  0  0  0  0  0  0  0
   19.6679  -13.7003   20.3781 C   0  0  1  0  0  0  0  0  0  0  0  0
   20.8919  -13.0793   20.1820 C   0  0  0  0  0  0  0  0  0  0  0  0
   19.4390  -14.7050   21.3437 C   0  0  0  0  0  0  0  0  0  0  0  0
   17.7361  -16.3367   22.2913 C   0  0  0  0  0  0  0  0  0  0  0  0
   15.6608  -17.5216   22.8295 N   0  0  0  0  0  0  0  0  0  0  0  0
   12.8528  -14.7453   22.0910 C   0  0  0  0  0  0  0  0  0  0  0  0
   15.7056  -17.8260   24.1369 C   0  0  0  0  0  0  0  0  0  0  0  0
   12.3174  -12.5441   22.0949 C   0  0  2  0  0  0  0  0  0  0  0  0
   13.2897  -10.7893   20.5939 O   0  0  0  0  0  0  0  0  0  0  0  0
   12.0939  -13.7416   22.5950 C   0  0  0  0  0  0  0  0  0  0  0  0
   11.3178  -11.1276   22.7890 Cl  0  0  0  0  0  0  0  0  0  0  0  0
   15.6461  -18.7997   22.0237 C   0  0  0  0  0  0  0  0  0  0  0  0
  1  2  1  0
  1  3  1  0
  4  3  1  6
  1  5  1  1
  4  6  1  0
  7  2  1  6
  4  7  1  0
  7  8  1  0
  8  9  1  1
  8 10  1  0
 10 11  1  0
  6 12  1  0
 13 11  1  1
 12 13  1  0
 13 14  1  0
 12 15  1  0
  6 16  1  1
 16 17  1  0
 17 18  1  1
 15 19  1  1
 17 19  1  0
 14 20  1  0
 15 20  1  0
 14 21  1  6
 10 22  1  6
 21 23  1  0
  9 24  1  0
  9 25  1  0
 22 26  1  0
 24 26  1  0
 24 27  1  6
 21 28  1  0
M  END
$$$$
11
     RDKit          3D

 13 14  0  0  0  0  0  0  0  0999 V2000
   12.5038  -10.5187   21.6669 C   0  0  0  0  0  0  0  0  0  0  0  0
   12.9203  -11.4065   20.7403 C   0  0  0  0  0  0  0  0  0  0  0  0
   13.0262  -12.6972   21.0422 C   0  0  1  0  0  0  0  0  0  0  0  0
   12.0241  -11.1253   22.8610 C   0  0  2  0  0  0  0  0  0  0  0  0
   11.9772  -12.4117   23.0353 C   0  0  0  0  0  0  0  0  0  0  0  0
   12.3986  -13.1871   22.2138 C   0  0  0  0  0  0  0  0  0  0  0  0
   11.5009  -10.1267   23.9036 C   0  0  0  0  0  0  0  0  0  0  0  0
   13.6294  -13.5702   20.0698 C   0  0  0  0  0  0  0  0  0  0  0  0
   14.5125  -13.0462   19.1603 N   0  0  0  0  0  0  0  0  0  0  0  0
   10.6973  -10.5665   24.8497 N   0  0  0  0  0  0  0  0  0  0  0  0
   13.2659  -14.7845   19.6222 N   0  0  0  0  0  0  0  0  0  0  0  0
   14.0675  -15.1656   18.6333 N   0  0  0  0  0  0  0  0  0  0  0  0
   14.9193  -14.0951   18.3519 C   0  0  0  0  0  0  0  0  0  0  0  0
  1  2  1  0
  2  3  1  0
  1  4  1  0
  4  5  1  0
  3  6  1  0
  5  6  1  0
  4  7  1  6
  3  8  1  6
  8  9  1  0
  7 10  1  0
  8 11  2  0
 11 12  1  0
  9 13  1  0
 12 13  1  0
M  END
$$$$
12
     RDKit          3D

 13 14  0  0  0  0  0  0  0  0999 V2000
   20.5422  -13.8875   26.0318 C   0  0  0  0  0  0  0  0  0  0  0  0
   20.2847  -13.9803   24.7433 C   0  0  0  0  0  0  0  0  0  0  0  0
   20.1912  -14.9394   26.7368 C   0  0  0  0  0  0  0  0  0  0  0  0
   19.5339  -14.9825   24.0813 C   0  0  0  0  0  0  0  0  0  0  0  0
   19.0753  -16.0323   24.9604 C   0  0  0  0  0  0  0  0  0  0  0  0
   19.3988  -16.0382   26.2781 C   0  0  0  0  0  0  0  0  0  0  0  0
   19.2593  -14.9265   22.5566 C   0  0  1  0  0  0  0  0  0  0  0  0
   19.8349  -14.0580   21.7826 C   0  0  0  0  0  0  0  0  0  0  0  0
   19.1058  -16.1973   21.8895 C   0  0  0  0  0  0  0  0  0  0  0  0
   19.1565  -16.0725   20.5471 C   0  0  0  0  0  0  0  0  0  0  0  0
   19.6375  -14.6052   20.3632 C   0  0  2  0  0  0  0  0  0  0  0  0
   19.9363  -13.8817   19.2036 C   0  0  0  0  0  0  0  0  0  0  0  0
   20.4949  -12.5686   19.4045 C   0  0  0  0  0  0  0  0  0  0  0  0
  1  2  1  0
  1  3  1  0
  2  4  1  0
  4  5  1  0
  3  6  1  0
  5  6  1  0
  7  4  1  1
  7  8  1  0
  7  9  1  0
  9 10  1  0
  8 11  1  0
 10 11  1  0
 11 12  1  6
 12 13  1  0
M  END
$$$$
13
     RDKit          3D

 13 14  0  0  0  0  0  0  0  0999 V2000
   11.1280  -11.3783   24.2954 C   0  0  0  0  0  0  0  0  0  0  0  0
   11.5647  -12.3289   23.4261 C   0  0  0  0  0  0  0  0  0  0  0  0
   12.4024  -11.9600   22.3996 C   0  0  0  0  0  0  0  0  0  0  0  0
   11.7022  -10.0481   24.1223 C   0  0  0  0  0  0  0  0  0  0  0  0
   11.3538   -8.9972   25.1098 C   0  0  0  0  0  0  0  0  0  0  0  0
   12.6790   -9.9352   23.1303 C   0  0  0  0  0  0  0  0  0  0  0  0
   12.9504  -10.7555   22.2243 C   0  0  0  0  0  0  0  0  0  0  0  0
   12.7301  -13.0105   21.3588 C   0  0  0  0  0  0  0  0  0  0  0  0
   12.3658  -14.1917   21.4237 N   0  0  0  0  0  0  0  0  0  0  0  0
   13.7452  -12.6944   20.3962 C   0  0  0  0  0  0  0  0  0  0  0  0
   12.8340  -14.9188   20.3661 N   0  0  0  0  0  0  0  0  0  0  0  0
   14.3320  -11.5869   20.0106 O   0  0  0  0  0  0  0  0  0  0  0  0
   13.8381  -14.0143   19.8868 C   0  0  0  0  0  0  0  0  0  0  0  0
  1  2  1  0
  2  3  1  0
  1  4  1  0
  4  5  1  0
  4  6  1  0
  3  7  1  0
  6  7  1  0
  3  8  1  0
  8  9  2  0
  8 10  1  0
  9 11  1  0
 10 12  1  0
 10 13  2  0
 11 13  2  0
M  END
$$$$
14
     RDKit          3D

 13 14  0  0  0  0  0  0  0  0999 V2000
   10.7999  -10.8985   24.5208 C   0  0  0  0  0  0  0  0  0  0  0  0
   11.7906  -10.1255   23.8461 C   0  0  0  0  0  0  0  0  0  0  0  0
   12.5511  -10.5547   22.8584 C   0  0  0  0  0  0  0  0  0  0  0  0
   13.4398   -9.9061   22.0567 C   0  0  0  0  0  0  0  0  0  0  0  0
   14.1685  -10.6241   21.0567 C   0  0  0  0  0  0  0  0  0  0  0  0
   12.4502  -11.9983   22.5670 C   0  0  2  0  0  0  0  0  0  0  0  0
   11.6287  -12.6756   23.4730 C   0  0  0  0  0  0  0  0  0  0  0  0
   13.9830  -11.9699   20.8429 C   0  0  0  0  0  0  0  0  0  0  0  0
   10.8671  -12.2405   24.4158 C   0  0  0  0  0  0  0  0  0  0  0  0
   13.2337  -12.5816   21.6013 C   0  0  0  0  0  0  0  0  0  0  0  0
   14.7581  -12.5385   19.7143 C   0  0  0  0  0  0  0  0  0  0  0  0
   15.5452  -11.8975   18.9074 O   0  0  0  0  0  0  0  0  0  0  0  0
   14.2756  -13.6173   19.1451 O   0  0  0  0  0  0  0  0  0  0  0  0
  1  2  1  0
  2  3  1  0
  3  4  1  0
  4  5  1  0
  3  6  1  0
  6  7  1  1
  5  8  1  0
  1  9  1  0
  7  9  1  0
  6 10  1  0
  8 10  1  0
  8 11  1  0
 11 12  1  0
 11 13  2  0
M  END
$$$$
15
     RDKit          3D

 14 15  0  0  0  0  0  0  0  0999 V2000
   11.1858  -10.9447   23.7365 C   0  0  0  0  0  0  0  0  0  0  0  0
   11.5109  -12.0519   23.0248 C   0  0  0  0  0  0  0  0  0  0  0  0
   12.5106  -12.1126   22.0603 C   0  0  1  0  0  0  0  0  0  0  0  0
   12.8578  -13.2832   21.3030 C   0  0  0  0  0  0  0  0  0  0  0  0
   10.4636  -10.9961   24.9738 N   0  0  0  0  0  0  0  0  0  0  0  0
   12.8826  -10.8361   21.4476 C   0  0  0  0  0  0  0  0  0  0  0  0
   13.7640  -10.9304   20.3463 C   0  0  0  0  0  0  0  0  0  0  0  0
   13.7216  -13.3284   20.3166 C   0  0  0  0  0  0  0  0  0  0  0  0
   14.1047  -14.5636   19.6934 C   0  0  0  0  0  0  0  0  0  0  0  0
   14.2268  -12.1045   19.8686 C   0  0  1  0  0  0  0  0  0  0  0  0
   15.0860  -14.4756   18.6929 C   0  0  0  0  0  0  0  0  0  0  0  0
   15.1341  -12.0369   18.6868 N   0  0  0  0  0  0  0  0  0  0  0  0
   15.5017  -13.1743   18.2274 C   0  0  1  0  0  0  0  0  0  0  0  0
   16.6827  -13.2011   17.4079 N   0  0  0  0  0  0  0  0  0  0  0  0
  1  2  1  0
  3  2  1  6
  3  4  1  0
  1  5  1  0
  3  6  1  0
  6  7  1  0
  4  8  1  0
  8  9  1  0
 10  7  1  6
  8 10  1  0
  9 11  1  0
 10 12  1  0
 11 13  1  0
 12 13  1  0
 13 14  1  1
M  END
$$$$
16
     RDKit          3D

 14 15  0  0  0  0  0  0  0  0999 V2000
   12.3242  -10.4074   23.2205 C   0  0  0  0  0  0  0  0  0  0  0  0
   11.6946  -10.9339   24.0641 C   0  0  1  0  0  0  0  0  0  0  0  0
   11.1074  -10.3137   25.2828 N   0  0  0  0  0  0  0  0  0  0  0  0
   12.7388  -11.1578   22.0485 C   0  0  0  0  0  0  0  0  0  0  0  0
   11.3359  -12.2553   23.8087 C   0  0  0  0  0  0  0  0  0  0  0  0
   11.6755  -13.0165   22.7850 C   0  0  0  0  0  0  0  0  0  0  0  0
   12.5172  -12.3375   21.8548 C   0  0  1  0  0  0  0  0  0  0  0  0
   13.0432  -13.0091   20.6592 C   0  0  0  0  0  0  0  0  0  0  0  0
   13.5304  -12.2177   19.6398 C   0  0  0  0  0  0  0  0  0  0  0  0
   14.1786  -13.9403   21.0203 C   0  0  0  0  0  0  0  0  0  0  0  0
   14.8197  -14.4537   19.9363 C   0  0  0  0  0  0  0  0  0  0  0  0
   15.3277  -13.6172   18.9364 N   0  0  0  0  0  0  0  0  0  0  0  0
   14.3263  -12.6744   18.5496 C   0  0  0  0  0  0  0  0  0  0  0  0
   16.0725  -14.2334   17.8928 C   0  0  0  0  0  0  0  0  0  0  0  0
  1  2  1  0
  2  3  1  6
  1  4  1  0
  2  5  1  0
  5  6  1  0
  4  7  1  0
  6  7  1  0
  7  8  1  6
  8  9  1  0
  8 10  1  0
 10 11  1  0
 11 12  1  0
  9 13  1  0
 12 13  1  0
 12 14  1  0
M  END
$$$$
17
     RDKit          3D

 14 15  0  0  0  0  0  0  0  0999 V2000
   11.1858  -10.9447   23.7365 C   0  0  0  0  0  0  0  0  0  0  0  0
   11.5109  -12.0519   23.0248 C   0  0  0  0  0  0  0  0  0  0  0  0
   12.5106  -12.1126   22.0603 C   0  0  1  0  0  0  0  0  0  0  0  0
   12.8578  -13.2832   21.3030 C   0  0  0  0  0  0  0  0  0  0  0  0
   10.4636  -10.9961   24.9738 N   0  0  0  0  0  0  0  0  0  0  0  0
   12.8826  -10.8361   21.4476 C   0  0  0  0  0  0  0  0  0  0  0  0
   13.7640  -10.9304   20.3463 C   0  0  0  0  0  0  0  0  0  0  0  0
   13.7216  -13.3284   20.3166 C   0  0  0  0  0  0  0  0  0  0  0  0
   14.1047  -14.5636   19.6934 C   0  0  0  0  0  0  0  0  0  0  0  0
   14.2268  -12.1045   19.8686 C   0  0  1  0  0  0  0  0  0  0  0  0
   15.0860  -14.4756   18.6929 C   0  0  0  0  0  0  0  0  0  0  0  0
   15.6081  -15.6537   18.0930 C   0  0  0  0  0  0  0  0  0  0  0  0
   15.1758  -12.1273   18.7953 N   0  0  0  0  0  0  0  0  0  0  0  0
   15.5982  -13.2368   18.2437 C   0  0  0  0  0  0  0  0  0  0  0  0
  1  2  1  0
  3  2  1  6
  3  4  1  0
  1  5  1  0
  3  6  1  0
  6  7  1  0
  4  8  1  0
  8  9  1  0
 10  7  1  6
  8 10  1  0
  9 11  1  0
 11 12  1  0
 10 13  1  0
 11 14  1  0
 13 14  1  0
M  END
$$$$
18
     RDKit          3D

 14 15  0  0  0  0  0  0  0  0999 V2000
   12.3242  -10.4074   23.2205 C   0  0  0  0  0  0  0  0  0  0  0  0
   12.7918  -11.0887   22.2813 C   0  0  1  0  0  0  0  0  0  0  0  0
   12.6587  -12.4920   22.4351 C   0  0  1  0  0  0  0  0  0  0  0  0
   13.2798  -10.8952   20.9035 C   0  0  1  0  0  0  0  0  0  0  0  0
   13.5391  -13.3999   21.9714 C   0  0  0  0  0  0  0  0  0  0  0  0
   13.2148   -9.5552   20.4994 O   0  0  0  0  0  0  0  0  0  0  0  0
   14.0915  -11.8182   20.3312 C   0  0  2  0  0  0  0  0  0  0  0  0
   14.7268  -11.4170   19.0668 O   0  0  0  0  0  0  0  0  0  0  0  0
   14.1036  -13.1294   20.7832 C   0  0  0  0  0  0  0  0  0  0  0  0
   11.9066  -12.8335   23.7260 C   0  0  2  0  0  0  0  0  0  0  0  0
   11.4987  -10.5459   24.1985 C   0  0  0  0  0  0  0  0  0  0  0  0
   14.1832  -11.9648   17.8946 C   0  0  0  0  0  0  0  0  0  0  0  0
   11.4661  -14.1521   23.8911 O   0  0  0  0  0  0  0  0  0  0  0  0
   11.2377  -11.9197   24.5129 C   0  0  0  0  0  0  0  0  0  0  0  0
  2  1  1  6
  2  3  1  0
  2  4  1  0
  3  5  1  1
  4  6  1  1
  4  7  1  0
  7  8  1  6
  5  9  1  0
  7  9  1  0
  3 10  1  0
  1 11  1  0
  8 12  1  0
 10 13  1  6
 10 14  1  0
 11 14  1  0
M  END
$$$$
19
     RDKit          3D

 15 17  0  0  0  0  0  0  0  0999 V2000
   11.9009  -11.1573   21.8386 C   0  0  2  0  0  0  0  0  0  0  0  0
   12.4034  -12.1323   21.2935 C   0  0  2  0  0  0  0  0  0  0  0  0
   13.1645  -12.1953   20.1772 C   0  0  2  0  0  0  0  0  0  0  0  0
   12.5092   -9.8539   21.4928 C   0  0  0  0  0  0  0  0  0  0  0  0
   11.5577  -13.5338   21.5959 C   0  0  0  0  0  0  0  0  0  0  0  0
   13.6765  -13.4274   19.5594 C   0  0  0  0  0  0  0  0  0  0  0  0
   11.1582  -11.1287   23.1069 C   0  0  2  0  0  0  0  0  0  0  0  0
   11.3603  -10.2494   24.1658 C   0  0  0  0  0  0  0  0  0  0  0  0
   11.1670  -12.6435   23.7057 N   0  0  0  0  0  0  0  0  0  0  0  0
   11.0477  -13.5663   22.8564 C   0  0  0  0  0  0  0  0  0  0  0  0
   13.1341   -9.8724   20.3409 N   0  0  0  0  0  0  0  0  0  0  0  0
   14.7513  -13.2105   18.6890 C   0  0  0  0  0  0  0  0  0  0  0  0
   15.2442  -11.9676   18.5064 N   0  0  0  0  0  0  0  0  0  0  0  0
   13.7702  -10.9682   19.8621 C   0  0  2  0  0  0  0  0  0  0  0  0
   14.6607  -10.9066   19.0407 C   0  0  0  0  0  0  0  0  0  0  0  0
  1  2  1  0
  2  3  1  0
  1  4  1  1
  2  5  1  6
  3  6  1  1
  1  7  1  0
  7  8  1  1
  7  9  1  0
  5 10  1  0
  9 10  1  0
  4 11  1  0
  6 12  1  0
 12 13  1  0
  3 14  1  0
 11 14  1  0
 13 15  1  0
 14 15  1  6
M  END
$$$$
2
     RDKit          3D

 10 10  0  0  0  0  0  0  0  0999 V2000
   11.2444  -11.6965   23.2217 C   0  0  0  0  0  0  0  0  0  0  0  0
   12.1505  -12.1867   22.3583 C   0  0  1  0  0  0  0  0  0  0  0  0
   11.4330  -10.5616   23.8848 C   0  0  0  0  0  0  0  0  0  0  0  0
   12.0796  -13.4714   21.5924 C   0  0  0  0  0  0  0  0  0  0  0  0
   11.8894  -14.6047   22.3023 N   0  0  0  0  0  0  0  0  0  0  0  0
   13.2030  -11.2647   21.9036 C   0  0  0  0  0  0  0  0  0  0  0  0
   10.6142  -10.2334   25.0711 O   0  0  0  0  0  0  0  0  0  0  0  0
   12.4529   -9.5448   23.5755 C   0  0  0  0  0  0  0  0  0  0  0  0
   12.4024  -13.4911   20.3298 N   0  0  0  0  0  0  0  0  0  0  0  0
   13.2286  -10.1608   22.4220 C   0  0  0  0  0  0  0  0  0  0  0  0
  1  2  1  0
  1  3  1  0
  2  4  1  6
  4  5  1  0
  2  6  1  0
  3  7  1  0
  3  8  1  0
  4  9  2  0
  6 10  1  0
  8 10  1  0
M  END
$$$$
20
     RDKit          3D

 15 16  0  0  0  0  0  0  0  0999 V2000
   11.1858  -10.9447   23.7365 C   0  0  0  0  0  0  0  0  0  0  0  0
   11.5109  -12.0519   23.0248 C   0  0  0  0  0  0  0  0  0  0  0  0
   12.5106  -12.1126   22.0603 C   0  0  1  0  0  0  0  0  0  0  0  0
   12.8578  -13.2832   21.3030 C   0  0  0  0  0  0  0  0  0  0  0  0
   10.4636  -10.9961   24.9738 N   0  0  0  0  0  0  0  0  0  0  0  0
   12.8826  -10.8361   21.4476 C   0  0  0  0  0  0  0  0  0  0  0  0
   13.7640  -10.9304   20.3463 C   0  0  0  0  0  0  0  0  0  0  0  0
   13.7216  -13.3284   20.3166 C   0  0  0  0  0  0  0  0  0  0  0  0
   14.1047  -14.5636   19.6934 C   0  0  0  0  0  0  0  0  0  0  0  0
   14.2268  -12.1045   19.8686 C   0  0  1  0  0  0  0  0  0  0  0  0
   15.0860  -14.4756   18.6929 C   0  0  0  0  0  0  0  0  0  0  0  0
   15.1341  -12.0369   18.6868 N   0  0  0  0  0  0  0  0  0  0  0  0
   15.5017  -13.1743   18.2274 C   0  0  0  0  0  0  0  0  0  0  0  0
   16.4871  -13.1033   16.9947 C   0  0  0  0  0  0  0  0  0  0  0  0
   17.7911  -12.6177   17.4144 O   0  0  0  0  0  0  0  0  0  0  0  0
  1  2  1  0
  3  2  1  6
  3  4  1  0
  1  5  1  0
  3  6  1  0
  6  7  1  0
  4  8  1  0
  8  9  1  0
 10  7  1  6
  8 10  1  0
  9 11  1  0
 10 12  1  0
 11 13  1  0
 12 13  1  0
 13 14  1  0
 14 15  1  0
M  END
$$$$
21
     RDKit          3D

 15 16  0  0  0  0  0  0  0  0999 V2000
   20.1686  -13.0430   19.1819 C   0  0  0  0  0  0  0  0  0  0  0  0
   18.9246  -13.3091   18.8010 C   0  0  0  0  0  0  0  0  0  0  0  0
   18.0329  -13.2025   19.5957 N   0  0  0  0  0  0  0  0  0  0  0  0
   16.5693  -13.1961   19.2321 C   0  0  2  0  0  0  0  0  0  0  0  0
   20.4100  -13.1226   20.5901 C   0  0  0  0  0  0  0  0  0  0  0  0
   16.1179  -13.2628   18.1049 O   0  0  0  0  0  0  0  0  0  0  0  0
   18.5140  -13.1723   20.9166 C   0  0  0  0  0  0  0  0  0  0  0  0
   14.8678  -12.9115   17.8095 C   0  0  0  0  0  0  0  0  0  0  0  0
   15.6224  -12.4962   20.1055 C   0  0  2  0  0  0  0  0  0  0  0  0
   15.3266  -12.7845   21.4487 C   0  0  0  0  0  0  0  0  0  0  0  0
   14.2519  -12.7551   19.2511 C   0  0  1  0  0  0  0  0  0  0  0  0
   13.1184  -12.1077   19.6888 C   0  0  0  0  0  0  0  0  0  0  0  0
   15.2630  -14.0063   21.7673 O   0  0  0  0  0  0  0  0  0  0  0  0
   13.3348  -10.8414   20.2428 O   0  0  0  0  0  0  0  0  0  0  0  0
   15.4375  -11.8628   22.4289 O   0  0  0  0  0  0  0  0  0  0  0  0
  1  2  1  0
  2  3  1  0
  4  3  1  6
  1  5  1  0
  4  6  1  0
  3  7  1  0
  5  7  1  0
  6  8  1  0
  4  9  1  0
  9 10  1  1
  8 11  1  0
  9 11  1  0
 11 12  1  6
 10 13  2  0
 12 14  1  0
 10 15  1  0
M  END
$$$$
22
     RDKit          3D

 15 17  0  0  0  0  0  0  0  0999 V2000
   20.1686  -13.0430   19.1819 C   0  0  0  0  0  0  0  0  0  0  0  0
   18.9246  -13.3091   18.8010 C   0  0  0  0  0  0  0  0  0  0  0  0
   18.0329  -13.2025   19.5957 N   0  0  0  0  0  0  0  0  0  0  0  0
   16.5693  -13.1961   19.2321 C   0  0  2  0  0  0  0  0  0  0  0  0
   20.4100  -13.1226   20.5901 C   0  0  0  0  0  0  0  0  0  0  0  0
   16.1179  -13.2628   18.1049 O   0  0  0  0  0  0  0  0  0  0  0  0
   18.5140  -13.1723   20.9166 C   0  0  0  0  0  0  0  0  0  0  0  0
   14.8678  -12.9115   17.8095 C   0  0  0  0  0  0  0  0  0  0  0  0
   15.6224  -12.4962   20.1055 C   0  0  2  0  0  0  0  0  0  0  0  0
   15.3266  -12.7845   21.4487 C   0  0  0  0  0  0  0  0  0  0  0  0
   14.2519  -12.7551   19.2511 C   0  0  1  0  0  0  0  0  0  0  0  0
   13.2664  -11.6978   19.5102 O   0  0  0  0  0  0  0  0  0  0  0  0
   12.9044  -11.7840   20.9460 C   0  0  0  0  0  0  0  0  0  0  0  0
   13.9853  -11.8595   21.9028 C   0  0  0  0  0  0  0  0  0  0  0  0
   11.6955  -11.4906   21.3211 O   0  0  0  0  0  0  0  0  0  0  0  0
  1  2  1  0
  2  3  1  0
  4  3  1  6
  1  5  1  0
  4  6  1  0
  3  7  1  0
  5  7  1  0
  6  8  1  0
  4  9  1  0
  9 10  1  1
 11  8  1  6
  9 11  1  0
 11 12  1  0
 12 13  1  0
 10 14  1  0
 13 14  1  0
 13 15  2  0
M  END
$$$$
23
     RDKit          3D

 16 18  0  0  0  0  0  0  0  0999 V2000
   11.9009  -11.1573   21.8386 C   0  0  2  0  0  0  0  0  0  0  0  0
   12.4034  -12.1323   21.2935 C   0  0  2  0  0  0  0  0  0  0  0  0
   13.1645  -12.1953   20.1772 C   0  0  2  0  0  0  0  0  0  0  0  0
   12.5092   -9.8539   21.4928 C   0  0  0  0  0  0  0  0  0  0  0  0
   11.5577  -13.5338   21.5959 C   0  0  0  0  0  0  0  0  0  0  0  0
   13.6765  -13.4274   19.5594 C   0  0  0  0  0  0  0  0  0  0  0  0
   11.1582  -11.1287   23.1069 C   0  0  2  0  0  0  0  0  0  0  0  0
   11.3603  -10.2494   24.1658 C   0  0  0  0  0  0  0  0  0  0  0  0
   11.1670  -12.6435   23.7057 N   0  0  0  0  0  0  0  0  0  0  0  0
   11.0477  -13.5663   22.8564 C   0  0  0  0  0  0  0  0  0  0  0  0
   13.1341   -9.8724   20.3409 N   0  0  0  0  0  0  0  0  0  0  0  0
   14.7513  -13.2105   18.6890 C   0  0  0  0  0  0  0  0  0  0  0  0
   15.2442  -11.9676   18.5064 N   0  0  0  0  0  0  0  0  0  0  0  0
   13.5680  -11.0134   19.7362 C   0  0  1  0  0  0  0  0  0  0  0  0
   16.3255  -11.8241   17.5976 C   0  0  0  0  0  0  0  0  0  0  0  0
   14.7426  -10.9030   18.9044 C   0  0  0  0  0  0  0  0  0  0  0  0
  1  2  1  0
  2  3  1  0
  1  4  1  1
  2  5  1  6
  3  6  1  1
  1  7  1  0
  7  8  1  1
  7  9  1  0
  5 10  1  0
  9 10  1  0
  4 11  1  0
  6 12  1  0
 12 13  1  0
  3 14  1  0
 11 14  1  0
 13 15  1  0
 13 16  1  0
 14 16  1  1
M  END
$$$$
24
     RDKit          3D

 16 18  0  0  0  0  0  0  0  0999 V2000
   10.7999  -10.8985   24.5208 C   0  0  0  0  0  0  0  0  0  0  0  0
   11.7906  -10.1255   23.8461 C   0  0  0  0  0  0  0  0  0  0  0  0
   12.5511  -10.5547   22.8584 C   0  0  0  0  0  0  0  0  0  0  0  0
   13.4398   -9.9061   22.0567 C   0  0  0  0  0  0  0  0  0  0  0  0
   14.1685  -10.6241   21.0567 C   0  0  0  0  0  0  0  0  0  0  0  0
   12.4332  -12.0170   22.5067 C   0  0  2  0  0  0  0  0  0  0  0  0
   12.9302  -12.5206   21.6984 C   0  0  0  0  0  0  0  0  0  0  0  0
   13.8370  -11.9539   20.8145 C   0  0  0  0  0  0  0  0  0  0  0  0
   11.3617  -12.7389   23.3810 C   0  0  0  0  0  0  0  0  0  0  0  0
   14.5356  -12.6288   19.6670 C   0  0  0  0  0  0  0  0  0  0  0  0
   14.4805  -13.9560   19.7164 N   0  0  0  0  0  0  0  0  0  0  0  0
   14.9484  -11.8961   18.5929 N   0  0  0  0  0  0  0  0  0  0  0  0
   15.0579  -14.4350   18.5120 C   0  0  0  0  0  0  0  0  0  0  0  0
   15.1823  -12.8531   17.7620 C   0  0  0  0  0  0  0  0  0  0  0  0
   15.6325  -12.6160   16.4955 N   0  0  0  0  0  0  0  0  0  0  0  0
   10.7903  -12.2580   24.3272 C   0  0  0  0  0  0  0  0  0  0  0  0
  1  2  1  0
  2  3  1  0
  3  4  1  0
  4  5  1  0
  3  6  1  0
  6  7  1  6
  5  8  1  0
  7  8  1  0
  6  9  1  0
  8 10  1  0
 10 11  2  0
 10 12  1  0
 11 13  1  0
 12 14  2  0
 13 14  1  0
 14 15  1  0
  1 16  1  0
  9 16  1  0
M  END
$$$$
25
     RDKit          3D

 16 17  0  0  0  0  0  0  0  0999 V2000
   11.2609  -10.4790   24.4062 C   0  0  0  0  0  0  0  0  0  0  0  0
   10.8522  -11.6984   24.2299 C   0  0  0  0  0  0  0  0  0  0  0  0
   12.2772  -10.0256   23.4283 C   0  0  0  0  0  0  0  0  0  0  0  0
   11.2557  -12.6116   23.1346 C   0  0  0  0  0  0  0  0  0  0  0  0
   12.2963  -11.9900   22.3060 C   0  0  0  0  0  0  0  0  0  0  0  0
   12.7551  -10.7405   22.4011 C   0  0  0  0  0  0  0  0  0  0  0  0
   12.7623  -12.7902   21.1196 C   0  0  1  0  0  0  0  0  0  0  0  0
   13.3254  -12.0480   20.0655 C   0  0  0  0  0  0  0  0  0  0  0  0
   13.8915  -12.8487   19.0023 C   0  0  1  0  0  0  0  0  0  0  0  0
   13.5056  -13.9897   21.7071 C   0  0  0  0  0  0  0  0  0  0  0  0
   14.5228  -12.0653   17.9713 N   0  0  0  0  0  0  0  0  0  0  0  0
   15.3984  -12.6790   17.1101 C   0  0  0  0  0  0  0  0  0  0  0  0
   16.0427  -11.8660   16.2248 C   0  0  0  0  0  0  0  0  0  0  0  0
   15.5347  -13.8417   17.2239 O   0  0  0  0  0  0  0  0  0  0  0  0
   14.0235  -14.8332   20.5817 C   0  0  0  0  0  0  0  0  0  0  0  0
   14.5773  -14.0378   19.4336 C   0  0  0  0  0  0  0  0  0  0  0  0
  1  2  1  0
  1  3  1  0
  2  4  1  0
  4  5  1  0
  3  6  1  0
  5  6  1  0
  7  5  1  1
  7  8  1  0
  8  9  1  0
  7 10  1  0
  9 11  1  1
 11 12  1  0
 12 13  1  0
 12 14  2  0
 10 15  1  0
  9 16  1  0
 15 16  1  0
M  END
$$$$
26
     RDKit          3D

 17 19  0  0  0  0  0  0  0  0999 V2000
   11.9009  -11.1573   21.8386 C   0  0  2  0  0  0  0  0  0  0  0  0
   12.4034  -12.1323   21.2935 C   0  0  2  0  0  0  0  0  0  0  0  0
   13.1645  -12.1953   20.1772 C   0  0  0  0  0  0  0  0  0  0  0  0
   12.5092   -9.8539   21.4928 C   0  0  0  0  0  0  0  0  0  0  0  0
   11.5577  -13.5338   21.5959 C   0  0  1  0  0  0  0  0  0  0  0  0
   13.6765  -13.4274   19.5594 C   0  0  2  0  0  0  0  0  0  0  0  0
   11.1582  -11.1287   23.1069 C   0  0  2  0  0  0  0  0  0  0  0  0
   11.3603  -10.2494   24.1658 C   0  0  0  0  0  0  0  0  0  0  0  0
   11.1670  -12.6435   23.7057 N   0  0  0  0  0  0  0  0  0  0  0  0
   13.4408  -14.5276   20.1525 C   0  0  2  0  0  0  0  0  0  0  0  0
   13.9353  -15.7667   19.5515 C   0  0  0  0  0  0  0  0  0  0  0  0
   12.0770  -14.7136   20.8017 C   0  0  0  0  0  0  0  0  0  0  0  0
   13.4945  -16.9583   19.8267 O   0  0  0  0  0  0  0  0  0  0  0  0
   10.9901  -13.6138   22.7679 C   0  0  0  0  0  0  0  0  0  0  0  0
   15.0986  -15.7222   18.8853 N   0  0  0  0  0  0  0  0  0  0  0  0
   14.8767  -13.3118   18.6645 C   0  0  0  0  0  0  0  0  0  0  0  0
   15.5917  -14.4932   18.4718 C   0  0  0  0  0  0  0  0  0  0  0  0
  1  2  1  0
  2  3  1  6
  1  4  1  1
  2  5  1  0
  6  3  1  1
  1  7  1  0
  7  8  1  1
  7  9  1  0
  6 10  1  0
 10 11  1  0
  5 12  1  1
 10 12  1  6
 11 13  2  0
  5 14  1  0
  9 14  1  0
 11 15  1  0
  6 16  1  0
 15 17  1  0
 16 17  1  0
M  END
$$$$
27
     RDKit          3D

 17 19  0  0  0  0  0  0  0  0999 V2000
   20.2241  -13.2645   19.6505 C   0  0  0  0  0  0  0  0  0  0  0  0
   20.0972  -13.4933   20.9511 C   0  0  0  0  0  0  0  0  0  0  0  0
   19.0598  -13.3456   18.8169 C   0  0  0  0  0  0  0  0  0  0  0  0
   18.9054  -13.9393   21.4327 C   0  0  2  0  0  0  0  0  0  0  0  0
   17.6815  -13.8922   20.6529 C   0  0  1  0  0  0  0  0  0  0  0  0
   17.8154  -13.6070   19.2969 C   0  0  0  0  0  0  0  0  0  0  0  0
   16.2221  -14.3840   21.2400 C   0  0  0  0  0  0  0  0  0  0  0  0
   18.7166  -14.1984   22.9526 C   0  0  2  0  0  0  0  0  0  0  0  0
   19.7921  -14.0351   23.8178 N   0  0  0  0  0  0  0  0  0  0  0  0
   17.5511  -14.8925   23.3076 C   0  0  2  0  0  0  0  0  0  0  0  0
   16.3722  -14.8828   22.5609 N   0  0  0  0  0  0  0  0  0  0  0  0
   17.6010  -15.2334   24.6615 N   0  0  0  0  0  0  0  0  0  0  0  0
   18.7443  -15.0018   25.3133 C   0  0  0  0  0  0  0  0  0  0  0  0
   19.7707  -14.3732   24.9733 C   0  0  1  0  0  0  0  0  0  0  0  0
   15.2356  -14.5652   20.6013 O   0  0  0  0  0  0  0  0  0  0  0  0
   21.0766  -14.0718   25.9601 C   0  0  0  0  0  0  0  0  0  0  0  0
   20.7606  -13.1143   26.8681 F   0  0  0  0  0  0  0  0  0  0  0  0
  1  2  1  0
  1  3  1  0
  4  2  1  1
  4  5  1  0
  3  6  1  0
  5  6  1  6
  5  7  1  0
  4  8  1  0
  8  9  1  6
  8 10  1  0
  7 11  1  0
 10 11  1  1
 10 12  1  0
 12 13  1  0
  9 14  1  0
 13 14  1  0
  7 15  2  0
 14 16  1  6
 16 17  1  0
M  END
$$$$
28
     RDKit          3D

 18 19  0  0  0  0  0  0  0  0999 V2000
   19.9758  -14.6199   26.2690 C   0  0  0  0  0  0  0  0  0  0  0  0
   19.4517  -15.2056   25.2183 C   0  0  2  0  0  0  0  0  0  0  0  0
   20.7315  -13.4559   26.1745 C   0  0  0  0  0  0  0  0  0  0  0  0
   18.4286  -16.2094   25.2202 C   0  0  0  0  0  0  0  0  0  0  0  0
   20.1133  -14.9262   23.8657 C   0  0  1  0  0  0  0  0  0  0  0  0
   18.0976  -16.8171   23.9235 C   0  0  1  0  0  0  0  0  0  0  0  0
   16.9464  -17.7564   23.9887 C   0  0  0  0  0  0  0  0  0  0  0  0
   19.6267  -15.4387   22.6784 C   0  0  1  0  0  0  0  0  0  0  0  0
   16.8921  -18.6074   24.7843 O   0  0  0  0  0  0  0  0  0  0  0  0
   16.0912  -17.7694   22.9285 N   0  0  0  0  0  0  0  0  0  0  0  0
   18.5173  -16.3616   22.7252 C   0  0  0  0  0  0  0  0  0  0  0  0
   20.1727  -14.9863   21.4095 N   0  0  0  0  0  0  0  0  0  0  0  0
   14.9969  -18.7149   22.8343 C   0  0  0  0  0  0  0  0  0  0  0  0
   21.1298  -13.9685   23.8887 C   0  0  0  0  0  0  0  0  0  0  0  0
   21.5714  -13.4839   25.1306 C   0  0  0  0  0  0  0  0  0  0  0  0
   19.7331  -13.9409   20.7212 C   0  0  0  0  0  0  0  0  0  0  0  0
   18.6305  -13.2433   21.1352 O   0  0  0  0  0  0  0  0  0  0  0  0
   20.0573  -13.7295   19.3399 C   0  0  0  0  0  0  0  0  0  0  0  0
  2  1  1  1
  1  3  1  0
  2  4  1  0
  2  5  1  0
  4  6  1  0
  6  7  1  6
  5  8  1  0
  7  9  2  0
  7 10  1  0
  6 11  1  0
  8 11  1  0
  8 12  1  6
 10 13  1  0
  5 14  1  6
  3 15  1  0
 14 15  1  0
 12 16  1  0
 16 17  2  0
 16 18  1  0
M  END
$$$$
29
     RDKit          3D

 18 20  0  0  0  0  0  0  0  0999 V2000
   12.3242  -10.4074   23.2205 C   0  0  0  0  0  0  0  0  0  0  0  0
   12.7918  -11.0887   22.2813 C   0  0  1  0  0  0  0  0  0  0  0  0
   12.6587  -12.4920   22.4351 C   0  0  1  0  0  0  0  0  0  0  0  0
   13.2798  -10.8952   20.9035 C   0  0  1  0  0  0  0  0  0  0  0  0
   13.5391  -13.3999   21.9714 C   0  0  0  0  0  0  0  0  0  0  0  0
   13.2148   -9.5552   20.4994 O   0  0  0  0  0  0  0  0  0  0  0  0
   14.0915  -11.8182   20.3312 C   0  0  2  0  0  0  0  0  0  0  0  0
   14.7268  -11.4170   19.0668 O   0  0  0  0  0  0  0  0  0  0  0  0
   14.1036  -13.1294   20.7832 C   0  0  1  0  0  0  0  0  0  0  0  0
   11.4652  -10.7278   24.2521 C   0  0  0  0  0  0  0  0  0  0  0  0
   14.9257  -12.5355   18.2118 C   0  0  0  0  0  0  0  0  0  0  0  0
   11.6598  -13.1056   23.5131 C   0  0  0  0  0  0  0  0  0  0  0  0
   10.9692   -9.7515   25.1996 N   0  0  0  0  0  0  0  0  0  0  0  0
   11.1307  -12.0609   24.3597 C   0  0  0  0  0  0  0  0  0  0  0  0
   15.8717  -13.5431   18.6555 C   0  0  2  0  0  0  0  0  0  0  0  0
   16.5076  -14.2482   17.8828 O   0  0  0  0  0  0  0  0  0  0  0  0
   14.8663  -14.1517   19.9062 C   0  0  2  0  0  0  0  0  0  0  0  0
   13.8760  -14.9875   19.2154 O   0  0  0  0  0  0  0  0  0  0  0  0
  2  1  1  6
  2  3  1  0
  2  4  1  0
  3  5  1  1
  4  6  1  1
  4  7  1  0
  7  8  1  6
  9  5  1  1
  7  9  1  0
  1 10  1  0
  8 11  1  0
  3 12  1  0
 10 13  1  0
 10 14  1  0
 12 14  1  0
 11 15  1  0
 15 16  1  6
  9 17  1  0
 15 17  1  0
 17 18  1  6
M  END
$$$$
3
     RDKit          3D

 10 11  0  0  0  0  0  0  0  0999 V2000
   12.3397  -11.0162   21.2937 C   0  0  0  0  0  0  0  0  0  0  0  0
   12.1419  -10.8034   22.4944 C   0  0  2  0  0  0  0  0  0  0  0  0
   11.7756  -11.5459   23.2575 C   0  0  2  0  0  0  0  0  0  0  0  0
   11.3835  -11.2395   24.7911 C   0  0  0  0  0  0  0  0  0  0  0  0
   11.3540   -9.8273   24.9313 C   0  0  0  0  0  0  0  0  0  0  0  0
   11.6882  -12.9958   23.0032 C   0  0  0  0  0  0  0  0  0  0  0  0
   11.9392   -8.8798   24.0085 C   0  0  0  0  0  0  0  0  0  0  0  0
   12.0841  -13.3283   21.7294 C   0  0  0  0  0  0  0  0  0  0  0  0
   12.6630  -12.3259   20.8451 C   0  0  0  0  0  0  0  0  0  0  0  0
   12.2818   -9.3271   22.7716 C   0  0  0  0  0  0  0  0  0  0  0  0
  2  1  1  6
  2  3  1  0
  3  4  1  1
  4  5  1  0
  3  6  1  0
  5  7  1  0
  6  8  1  0
  1  9  1  0
  8  9  1  0
  2 10  1  0
  7 10  1  0
M  END
$$$$
30
     RDKit          3D

 19 21  0  0  0  0  0  0  0  0999 V2000
   11.1280  -11.3783   24.2954 C   0  0  0  0  0  0  0  0  0  0  0  0
   11.5647  -12.3289   23.4261 C   0  0  0  0  0  0  0  0  0  0  0  0
   12.2915  -11.7482   22.3996 C   0  0  0  0  0  0  0  0  0  0  0  0
   10.3476  -11.6934   25.5229 N   0  0  0  0  0  0  0  0  0  0  0  0
   13.0418  -12.4954   21.3904 C   0  0  2  0  0  0  0  0  0  0  0  0
   13.6067  -11.9274   20.2745 C   0  0  0  0  0  0  0  0  0  0  0  0
   14.4937  -12.7134   19.4856 C   0  0  0  0  0  0  0  0  0  0  0  0
   13.0438  -13.9358   21.4294 C   0  0  0  0  0  0  0  0  0  0  0  0
   12.4004  -10.3464   22.1384 C   0  0  0  0  0  0  0  0  0  0  0  0
   11.8170   -9.5638   23.2067 C   0  0  0  0  0  0  0  0  0  0  0  0
   11.2743   -9.9977   24.2542 C   0  0  0  0  0  0  0  0  0  0  0  0
   13.8405  -14.6889   20.5267 C   0  0  0  0  0  0  0  0  0  0  0  0
   13.8884  -16.1393   20.6525 O   0  0  0  0  0  0  0  0  0  0  0  0
   14.5198  -14.0426   19.5569 C   0  0  2  0  0  0  0  0  0  0  0  0
   15.4988  -14.7862   18.7532 C   0  0  0  0  0  0  0  0  0  0  0  0
   16.3924  -14.0404   17.9663 C   0  0  0  0  0  0  0  0  0  0  0  0
   13.9002  -16.6453   21.9271 C   0  0  0  0  0  0  0  0  0  0  0  0
   16.3569  -12.6027   17.9597 C   0  0  0  0  0  0  0  0  0  0  0  0
   15.3477  -11.9598   18.6424 N   0  0  0  0  0  0  0  0  0  0  0  0
  1  2  1  0
  2  3  1  0
  1  4  1  0
  5  3  1  6
  5  6  1  0
  6  7  1  0
  5  8  1  0
  3  9  1  0
  9 10  1  0
  1 11  1  0
 10 11  1  0
  8 12  1  0
 12 13  1  0
  7 14  1  0
 12 14  1  0
 14 15  1  1
 15 16  1  0
 13 17  1  0
 16 18  1  0
  7 19  1  0
 18 19  1  0
M  END
$$$$
31
     RDKit          3D

 19 21  0  0  0  0  0  0  0  0999 V2000
   20.0435  -13.1625   18.2759 C   0  0  0  0  0  0  0  0  0  0  0  0
   20.0250  -13.2231   19.6100 C   0  0  0  0  0  0  0  0  0  0  0  0
   18.7130  -12.9317   17.6546 C   0  0  0  0  0  0  0  0  0  0  0  0
   17.6833  -13.1105   18.5333 C   0  0  2  0  0  0  0  0  0  0  0  0
   16.2833  -13.0250   17.8917 C   0  0  0  0  0  0  0  0  0  0  0  0
   15.2473  -13.0520   18.8260 C   0  0  2  0  0  0  0  0  0  0  0  0
   17.8711  -13.1497   19.8105 C   0  0  2  0  0  0  0  0  0  0  0  0
   18.9028  -13.3030   20.4047 C   0  0  0  0  0  0  0  0  0  0  0  0
   16.5147  -13.1971   20.6789 C   0  0  0  0  0  0  0  0  0  0  0  0
   13.8998  -12.8424   18.1384 O   0  0  0  0  0  0  0  0  0  0  0  0
   15.3456  -12.8632   20.1231 C   0  0  2  0  0  0  0  0  0  0  0  0
   13.1684  -11.9314   18.9195 C   0  0  0  0  0  0  0  0  0  0  0  0
   13.1303  -12.2228   20.3694 C   0  0  2  0  0  0  0  0  0  0  0  0
   12.2368  -11.4349   21.1827 C   0  0  0  0  0  0  0  0  0  0  0  0
   14.2014  -12.6946   20.8344 N   0  0  0  0  0  0  0  0  0  0  0  0
   12.8232  -11.1079   22.4537 C   0  0  0  0  0  0  0  0  0  0  0  0
   11.8280  -10.7757   23.5858 C   0  0  0  0  0  0  0  0  0  0  0  0
   11.5154  -11.6351   24.4385 O   0  0  0  0  0  0  0  0  0  0  0  0
   11.1135  -12.9998   23.8679 C   0  0  0  0  0  0  0  0  0  0  0  0
  1  2  1  0
  1  3  1  0
  4  3  1  1
  4  5  1  0
  6  5  1  6
  4  7  1  0
  2  8  1  0
  7  8  1  6
  7  9  1  0
  6 10  1  0
  6 11  1  0
 11  9  1  1
 10 12  1  0
 12 13  1  0
 13 14  1  1
 11 15  1  0
 13 15  1  0
 14 16  1  0
 16 17  1  0
 17 18  1  0
 18 19  1  0
M  END
$$$$
32
     RDKit          3D

 19 21  0  0  0  0  0  0  0  0999 V2000
   11.1280  -11.3783   24.2954 C   0  0  0  0  0  0  0  0  0  0  0  0
   11.5647  -12.3289   23.4261 C   0  0  0  0  0  0  0  0  0  0  0  0
   12.2915  -11.7482   22.3996 C   0  0  0  0  0  0  0  0  0  0  0  0
   10.3476  -11.6934   25.5229 N   0  0  0  0  0  0  0  0  0  0  0  0
   13.0418  -12.4954   21.3904 C   0  0  2  0  0  0  0  0  0  0  0  0
   13.6067  -11.9274   20.2745 C   0  0  0  0  0  0  0  0  0  0  0  0
   14.4937  -12.7134   19.4856 C   0  0  1  0  0  0  0  0  0  0  0  0
   13.0438  -13.9358   21.4294 C   0  0  0  0  0  0  0  0  0  0  0  0
   12.4004  -10.3464   22.1384 C   0  0  0  0  0  0  0  0  0  0  0  0
   11.8170   -9.5638   23.2067 C   0  0  0  0  0  0  0  0  0  0  0  0
   11.2743   -9.9977   24.2542 C   0  0  0  0  0  0  0  0  0  0  0  0
   13.8405  -14.6889   20.5267 C   0  0  0  0  0  0  0  0  0  0  0  0
   13.8884  -16.1393   20.6525 O   0  0  0  0  0  0  0  0  0  0  0  0
   14.5198  -14.0426   19.5569 C   0  0  2  0  0  0  0  0  0  0  0  0
   15.4988  -14.7862   18.7532 C   0  0  0  0  0  0  0  0  0  0  0  0
   16.3924  -14.0404   17.9663 C   0  0  0  0  0  0  0  0  0  0  0  0
   13.9002  -16.6453   21.9271 C   0  0  0  0  0  0  0  0  0  0  0  0
   16.3569  -12.6027   17.9597 C   0  0  0  0  0  0  0  0  0  0  0  0
   15.1735  -11.9512   18.4269 C   0  0  0  0  0  0  0  0  0  0  0  0
  1  2  1  0
  2  3  1  0
  1  4  1  0
  5  3  1  6
  5  6  1  0
  7  6  1  6
  5  8  1  0
  3  9  1  0
  9 10  1  0
  1 11  1  0
 10 11  1  0
  8 12  1  0
 12 13  1  0
  7 14  1  0
 12 14  1  0
 14 15  1  1
 15 16  1  0
 13 17  1  0
 16 18  1  0
  7 19  1  0
 18 19  1  0
M  END
$$$$
33
     RDKit          3D

 19 22  0  0  0  0  0  0  0  0999 V2000
   20.7342  -15.2754   26.6108 C   0  0  0  0  0  0  0  0  0  0  0  0
   20.8682  -13.9757   26.4142 C   0  0  0  0  0  0  0  0  0  0  0  0
   19.5120  -15.8746   26.1244 C   0  0  0  0  0  0  0  0  0  0  0  0
   20.2393  -13.4328   25.1633 C   0  0  0  0  0  0  0  0  0  0  0  0
   18.9387  -15.4632   25.2798 C   0  0  0  0  0  0  0  0  0  0  0  0
   17.7402  -16.0440   24.5560 C   0  0  0  0  0  0  0  0  0  0  0  0
   17.3003  -15.4601   23.4080 N   0  0  0  0  0  0  0  0  0  0  0  0
   16.2224  -15.9430   22.6646 C   0  0  0  0  0  0  0  0  0  0  0  0
   19.1857  -14.1741   24.5878 C   0  0  2  0  0  0  0  0  0  0  0  0
   15.9743  -15.2252   21.4149 C   0  0  2  0  0  0  0  0  0  0  0  0
   16.6915  -14.1335   21.1318 C   0  0  1  0  0  0  0  0  0  0  0  0
   14.8436  -15.7489   20.5816 C   0  0  0  0  0  0  0  0  0  0  0  0
   17.0776  -17.0796   24.9789 O   0  0  0  0  0  0  0  0  0  0  0  0
   14.6432  -15.0173   19.3228 C   0  0  0  0  0  0  0  0  0  0  0  0
   15.4715  -13.9247   18.9788 C   0  0  0  0  0  0  0  0  0  0  0  0
   17.8440  -13.6984   21.9235 C   0  0  0  0  0  0  0  0  0  0  0  0
   16.5155  -13.5118   19.8760 C   0  0  0  0  0  0  0  0  0  0  0  0
   15.2433  -13.1650   17.5070 Cl  0  0  0  0  0  0  0  0  0  0  0  0
   18.2296  -14.3595   23.1982 C   0  0  2  0  0  0  0  0  0  0  0  0
  1  2  1  0
  1  3  1  0
  2  4  1  0
  3  5  1  0
  5  6  1  0
  6  7  1  0
  7  8  1  0
  9  4  1  6
  5  9  1  0
 10  8  1  1
 10 11  1  0
 10 12  1  0
  6 13  2  0
 12 14  1  0
 14 15  1  0
 11 16  1  6
 11 17  1  0
 15 17  1  0
 15 18  1  0
  7 19  1  0
  9 19  1  0
 19 16  1  1
M  END
$$$$
34
     RDKit          3D

 19 22  0  0  0  0  0  0  0  0999 V2000
   10.7999  -10.8985   24.5208 C   0  0  0  0  0  0  0  0  0  0  0  0
   11.7906  -10.1255   23.8461 C   0  0  0  0  0  0  0  0  0  0  0  0
   12.5511  -10.5547   22.8584 C   0  0  0  0  0  0  0  0  0  0  0  0
   13.4398   -9.9061   22.0567 C   0  0  0  0  0  0  0  0  0  0  0  0
   14.1685  -10.6241   21.0567 C   0  0  0  0  0  0  0  0  0  0  0  0
   12.4502  -11.9983   22.5670 C   0  0  2  0  0  0  0  0  0  0  0  0
   11.6287  -12.6756   23.4730 C   0  0  0  0  0  0  0  0  0  0  0  0
   13.9830  -11.9699   20.8429 C   0  0  2  0  0  0  0  0  0  0  0  0
   10.8671  -12.2405   24.4158 C   0  0  0  0  0  0  0  0  0  0  0  0
   13.2337  -12.5816   21.6013 C   0  0  2  0  0  0  0  0  0  0  0  0
   14.7860  -12.6599   19.9099 C   0  0  2  0  0  0  0  0  0  0  0  0
   14.4707  -13.9771   19.9151 N   0  0  0  0  0  0  0  0  0  0  0  0
   14.9045  -15.0204   19.2127 C   0  0  0  0  0  0  0  0  0  0  0  0
   13.3611  -13.9370   20.9656 C   0  0  0  0  0  0  0  0  0  0  0  0
   15.9902  -14.7834   18.5474 C   0  0  0  0  0  0  0  0  0  0  0  0
   14.2813  -16.1878   19.1488 O   0  0  0  0  0  0  0  0  0  0  0  0
   16.6639  -13.5212   18.4208 C   0  0  2  0  0  0  0  0  0  0  0  0
   17.7910  -13.3029   17.7357 O   0  0  0  0  0  0  0  0  0  0  0  0
   16.1513  -12.7720   19.4729 C   0  0  0  0  0  0  0  0  0  0  0  0
  1  2  1  0
  2  3  1  0
  3  4  1  0
  4  5  1  0
  3  6  1  0
  6  7  1  1
  8  5  1  1
  1  9  1  0
  7  9  1  0
  6 10  1  0
  8 10  1  0
  8 11  1  0
 11 12  1  0
 12 13  1  0
 10 14  1  6
 12 14  1  0
 13 15  1  0
 13 16  2  0
 15 17  1  0
 17 18  1  1
 11 19  1  1
 17 19  1  0
M  END
$$$$
35
     RDKit          3D

 19 21  0  0  0  0  0  0  0  0999 V2000
   20.0435  -13.1625   18.2759 C   0  0  0  0  0  0  0  0  0  0  0  0
   20.0250  -13.2231   19.6100 C   0  0  0  0  0  0  0  0  0  0  0  0
   18.7130  -12.9317   17.6546 C   0  0  0  0  0  0  0  0  0  0  0  0
   17.6833  -13.1105   18.5333 C   0  0  2  0  0  0  0  0  0  0  0  0
   16.2833  -13.0250   17.8917 C   0  0  0  0  0  0  0  0  0  0  0  0
   15.2473  -13.0520   18.8260 C   0  0  2  0  0  0  0  0  0  0  0  0
   17.8711  -13.1497   19.8105 C   0  0  2  0  0  0  0  0  0  0  0  0
   18.9028  -13.3030   20.4047 C   0  0  0  0  0  0  0  0  0  0  0  0
   16.5147  -13.1971   20.6789 C   0  0  0  0  0  0  0  0  0  0  0  0
   13.8998  -12.8424   18.1384 O   0  0  0  0  0  0  0  0  0  0  0  0
   15.3456  -12.8632   20.1231 C   0  0  2  0  0  0  0  0  0  0  0  0
   13.1684  -11.9314   18.9195 C   0  0  0  0  0  0  0  0  0  0  0  0
   13.1303  -12.2228   20.3694 C   0  0  2  0  0  0  0  0  0  0  0  0
   12.2368  -11.4349   21.1827 C   0  0  0  0  0  0  0  0  0  0  0  0
   14.2014  -12.6946   20.8344 N   0  0  0  0  0  0  0  0  0  0  0  0
   12.8232  -11.1079   22.4537 C   0  0  0  0  0  0  0  0  0  0  0  0
   11.8280  -10.7757   23.5858 C   0  0  0  0  0  0  0  0  0  0  0  0
   11.6607   -9.5845   23.9915 O   0  0  0  0  0  0  0  0  0  0  0  0
   10.8484  -11.6353   23.8585 C   0  0  0  0  0  0  0  0  0  0  0  0
  1  2  1  0
  1  3  1  0
  4  3  1  1
  4  5  1  0
  6  5  1  6
  4  7  1  0
  2  8  1  0
  7  8  1  6
  7  9  1  0
  6 10  1  0
  6 11  1  0
 11  9  1  1
 10 12  1  0
 12 13  1  0
 13 14  1  1
 11 15  1  0
 13 15  1  0
 14 16  1  0
 16 17  1  0
 17 18  1  0
 17 19  2  0
M  END
$$$$
36
     RDKit          3D

 20 23  0  0  0  0  0  0  0  0999 V2000
   19.7208  -16.1513   26.6868 C   0  0  0  0  0  0  0  0  0  0  0  0
   18.9784  -16.2557   25.6463 C   0  0  1  0  0  0  0  0  0  0  0  0
   19.1001  -15.2292   24.6361 C   0  0  2  0  0  0  0  0  0  0  0  0
   20.0259  -14.3531   24.9822 C   0  0  0  0  0  0  0  0  0  0  0  0
   18.0587  -17.3968   25.4060 C   0  0  0  0  0  0  0  0  0  0  0  0
   20.4943  -14.8845   26.6665 C   0  0  0  0  0  0  0  0  0  0  0  0
   18.1787  -15.1705   23.4873 C   0  0  1  0  0  0  0  0  0  0  0  0
   20.5315  -14.0183   25.8804 C   0  0  0  0  0  0  0  0  0  0  0  0
   18.2150  -14.2486   22.4511 N   0  0  0  0  0  0  0  0  0  0  0  0
   17.2125  -17.3046   24.1666 C   0  0  0  0  0  0  0  0  0  0  0  0
   17.1366  -16.1714   23.3065 C   0  0  2  0  0  0  0  0  0  0  0  0
   19.2153  -13.3565   22.1758 C   0  0  0  0  0  0  0  0  0  0  0  0
   16.2604  -16.1020   22.2138 C   0  0  0  0  0  0  0  0  0  0  0  0
   17.4070  -14.5757   21.2892 C   0  0  1  0  0  0  0  0  0  0  0  0
   15.2578  -17.0922   22.1555 O   0  0  0  0  0  0  0  0  0  0  0  0
   19.0054  -12.8533   20.8662 C   0  0  2  0  0  0  0  0  0  0  0  0
   16.3113  -15.1659   21.3443 N   0  0  0  0  0  0  0  0  0  0  0  0
   17.9118  -13.6556   20.2239 C   0  0  2  0  0  0  0  0  0  0  0  0
   19.9715  -12.1829   20.0569 O   0  0  0  0  0  0  0  0  0  0  0  0
   16.9483  -12.7501   19.4904 O   0  0  0  0  0  0  0  0  0  0  0  0
  2  1  1  6
  2  3  1  0
  3  4  1  1
  2  5  1  0
  1  6  1  0
  3  7  1  0
  4  8  1  0
  6  8  1  0
  7  9  1  6
  5 10  1  0
  7 11  1  0
 11 10  1  6
  9 12  1  0
 11 13  1  0
  9 14  1  0
 13 15  2  0
 12 16  1  0
 13 17  1  0
 14 17  1  1
 14 18  1  0
 16 18  1  0
 16 19  1  6
 18 20  1  1
M  END
$$$$
37
     RDKit          3D

 20 22  0  0  0  0  0  0  0  0999 V2000
   11.1280  -11.3783   24.2954 C   0  0  2  0  0  0  0  0  0  0  0  0
   11.5647  -12.3289   23.4261 C   0  0  0  0  0  0  0  0  0  0  0  0
   12.2915  -11.7482   22.3996 C   0  0  2  0  0  0  0  0  0  0  0  0
   10.3476  -11.6934   25.5229 N   0  0  0  0  0  0  0  0  0  0  0  0
   13.0418  -12.4954   21.3904 C   0  0  2  0  0  0  0  0  0  0  0  0
   13.6067  -11.9274   20.2745 C   0  0  2  0  0  0  0  0  0  0  0  0
   11.2414   -9.9428   24.0385 C   0  0  0  0  0  0  0  0  0  0  0  0
   12.6069  -10.3683   22.1964 C   0  0  1  0  0  0  0  0  0  0  0  0
   13.0795  -14.0277   21.3685 C   0  0  2  0  0  0  0  0  0  0  0  0
   13.6501  -10.5222   20.1978 C   0  0  0  0  0  0  0  0  0  0  0  0
   14.1820  -12.6125   18.9561 C   0  0  1  0  0  0  0  0  0  0  0  0
   12.6913  -14.8125   22.2493 N   0  0  0  0  0  0  0  0  0  0  0  0
   14.7014  -11.9870   18.0809 N   0  0  0  0  0  0  0  0  0  0  0  0
   13.1506   -9.8081   21.2728 C   0  0  0  0  0  0  0  0  0  0  0  0
   13.7055  -14.7172   20.2811 C   0  0  0  0  0  0  0  0  0  0  0  0
   14.2874  -14.0250   19.3097 C   0  0  0  0  0  0  0  0  0  0  0  0
   13.9381  -11.4883   17.1458 O   0  0  0  0  0  0  0  0  0  0  0  0
   12.0537   -9.5076   23.1197 C   0  0  0  0  0  0  0  0  0  0  0  0
   16.0399  -12.1831   17.6561 C   0  0  0  0  0  0  0  0  0  0  0  0
   16.3609  -11.7603   16.2650 C   0  0  0  0  0  0  0  0  0  0  0  0
  1  2  1  0
  3  2  1  1
  1  4  1  6
  3  5  1  0
  5  6  1  0
  1  7  1  0
  3  8  1  0
  5  9  1  6
  6 10  1  6
  6 11  1  0
  9 12  1  1
 11 13  1  0
  8 14  1  6
 10 14  1  0
  9 15  1  0
 11 16  1  1
 15 16  1  0
 13 17  1  0
  7 18  1  0
  8 18  1  0
 13 19  2  3
 19 20  1  0
M  CHG  2  13   1  17  -1
M  END
$$$$
38
     RDKit          3D

 20 22  0  0  0  0  0  0  0  0999 V2000
   11.1280  -11.3783   24.2954 C   0  0  0  0  0  0  0  0  0  0  0  0
   11.5647  -12.3289   23.4261 C   0  0  0  0  0  0  0  0  0  0  0  0
   12.4024  -11.9600   22.3996 C   0  0  0  0  0  0  0  0  0  0  0  0
   11.7022  -10.0481   24.1223 C   0  0  0  0  0  0  0  0  0  0  0  0
   11.3538   -8.9972   25.1098 C   0  0  0  0  0  0  0  0  0  0  0  0
   12.6790   -9.9352   23.1303 C   0  0  0  0  0  0  0  0  0  0  0  0
   12.9504  -10.7555   22.2243 C   0  0  0  0  0  0  0  0  0  0  0  0
   12.7301  -13.0105   21.3588 C   0  0  0  0  0  0  0  0  0  0  0  0
   12.3658  -14.1917   21.4237 N   0  0  0  0  0  0  0  0  0  0  0  0
   13.4848  -12.6916   20.1676 N   0  0  0  0  0  0  0  0  0  0  0  0
   13.6608  -13.8455   19.4892 C   0  0  1  0  0  0  0  0  0  0  0  0
   14.7030  -13.9319   18.5060 C   0  0  0  0  0  0  0  0  0  0  0  0
   12.9728  -14.8371   20.2962 N   0  0  0  0  0  0  0  0  0  0  0  0
   15.2894  -12.7572   18.0488 C   0  0  0  0  0  0  0  0  0  0  0  0
   16.6107  -12.8956   17.3399 C   0  0  0  0  0  0  0  0  0  0  0  0
   17.7042  -13.1275   18.2405 C   0  0  2  0  0  0  0  0  0  0  0  0
   18.9291  -13.4205   17.9501 O   0  0  0  0  0  0  0  0  0  0  0  0
   19.9215  -13.4908   18.9146 C   0  0  0  0  0  0  0  0  0  0  0  0
   19.5119  -12.9229   20.2048 C   0  0  0  0  0  0  0  0  0  0  0  0
   17.4940  -13.3247   19.7796 C   0  0  0  0  0  0  0  0  0  0  0  0
  1  2  1  0
  2  3  1  0
  1  4  1  0
  4  5  1  0
  4  6  1  0
  3  7  1  0
  6  7  1  0
  3  8  1  0
  8  9  2  0
  8 10  1  0
 10 11  1  0
 11 12  1  1
  9 13  1  0
 11 13  1  0
 12 14  1  0
 14 15  1  0
 16 15  1  6
 16 17  1  0
 17 18  1  0
 18 19  1  0
 16 20  1  0
 19 20  1  0
M  END
$$$$
39
     RDKit          3D

 20 22  0  0  0  0  0  0  0  0999 V2000
   11.9009  -11.1573   21.8386 C   0  0  0  0  0  0  0  0  0  0  0  0
   11.7800  -11.2356   23.0061 C   0  0  2  0  0  0  0  0  0  0  0  0
   12.9939  -11.6378   21.2597 C   0  0  1  0  0  0  0  0  0  0  0  0
   11.0682  -10.4274   23.9300 C   0  0  0  0  0  0  0  0  0  0  0  0
   12.6454  -12.3267   23.4311 O   0  0  0  0  0  0  0  0  0  0  0  0
   10.5889  -10.8714   25.0372 O   0  0  0  0  0  0  0  0  0  0  0  0
   13.3359  -12.6270   22.2792 C   0  0  2  0  0  0  0  0  0  0  0  0
   13.6519  -11.5884   20.0342 O   0  0  0  0  0  0  0  0  0  0  0  0
   14.3693  -13.5271   22.0618 N   0  0  0  0  0  0  0  0  0  0  0  0
   15.0710  -13.5293   21.0666 C   0  0  2  0  0  0  0  0  0  0  0  0
   16.3042  -14.2317   20.9631 C   0  0  0  0  0  0  0  0  0  0  0  0
   17.4561  -13.7463   20.4133 C   0  0  1  0  0  0  0  0  0  0  0  0
   16.5164  -15.6015   21.4928 C   0  0  0  0  0  0  0  0  0  0  0  0
   14.8115  -12.7756   19.8761 C   0  0  0  0  0  0  0  0  0  0  0  0
   17.6323  -12.4189   19.8441 O   0  0  0  0  0  0  0  0  0  0  0  0
   18.7190  -14.4846   20.4430 C   0  0  1  0  0  0  0  0  0  0  0  0
   19.9224  -13.8089   19.8996 C   0  0  0  0  0  0  0  0  0  0  0  0
   15.3146  -16.2508   22.0631 O   0  0  0  0  0  0  0  0  0  0  0  0
   17.6276  -16.3471   21.5535 C   0  0  0  0  0  0  0  0  0  0  0  0
   18.7599  -15.7088   21.0287 C   0  0  0  0  0  0  0  0  0  0  0  0
  1  2  1  0
  3  1  1  6
  2  4  1  1
  2  5  1  0
  4  6  1  0
  3  7  1  0
  5  7  1  0
  3  8  1  0
  7  9  1  1
  9 10  1  0
 10 11  1  1
 11 12  1  0
 11 13  1  0
  8 14  1  0
 10 14  1  0
 12 15  1  1
 12 16  1  0
 16 17  1  1
 13 18  1  0
 13 19  1  0
 16 20  1  0
 19 20  1  0
M  END
$$$$
4
     RDKit          3D

 11 12  0  0  0  0  0  0  0  0999 V2000
   12.2371  -10.7362   21.1563 C   0  0  0  0  0  0  0  0  0  0  0  0
   12.1569  -10.8552   22.5034 C   0  0  1  0  0  0  0  0  0  0  0  0
   12.2555   -9.6597   23.3133 C   0  0  0  0  0  0  0  0  0  0  0  0
   11.8279   -9.7930   24.6367 C   0  0  0  0  0  0  0  0  0  0  0  0
   10.9972  -11.0189   24.7953 C   0  0  0  0  0  0  0  0  0  0  0  0
   12.8486  -11.7315   20.4031 C   0  0  0  0  0  0  0  0  0  0  0  0
   11.7798  -12.0147   23.0088 C   0  0  2  0  0  0  0  0  0  0  0  0
   11.3337  -12.1460   24.0211 C   0  0  0  0  0  0  0  0  0  0  0  0
   12.1688  -13.3164   22.1389 C   0  0  0  0  0  0  0  0  0  0  0  0
   12.0609  -14.5023   22.6315 N   0  0  0  0  0  0  0  0  0  0  0  0
   12.6521  -13.0641   20.8574 C   0  0  0  0  0  0  0  0  0  0  0  0
  2  1  1  6
  2  3  1  0
  3  4  1  0
  4  5  1  0
  1  6  1  0
  2  7  1  0
  5  8  1  0
  7  8  1  1
  7  9  1  0
  9 10  1  0
  6 11  1  0
  9 11  1  0
M  END
$$$$
40
     RDKit          3D

 20 21  0  0  0  0  0  0  0  0999 V2000
   14.9095  -12.2473   17.3962 C   0  0  2  0  0  0  0  0  0  0  0  0
   14.0706  -12.2957   18.1947 N   0  0  0  0  0  0  0  0  0  0  0  0
   16.2463  -12.7868   17.7363 C   0  0  0  0  0  0  0  0  0  0  0  0
   16.1606  -13.2094   19.0530 C   0  0  2  0  0  0  0  0  0  0  0  0
   14.7735  -11.5162   16.0879 N   0  0  0  0  0  0  0  0  0  0  0  0
   17.1803  -13.8818   19.8648 C   0  0  1  0  0  0  0  0  0  0  0  0
   14.7454  -12.9552   19.3778 C   0  0  0  0  0  0  0  0  0  0  0  0
   14.0553  -13.2885   20.6721 C   0  0  2  0  0  0  0  0  0  0  0  0
   18.5151  -13.4663   19.7078 C   0  0  0  0  0  0  0  0  0  0  0  0
   12.9755  -12.5040   20.9977 C   0  0  0  0  0  0  0  0  0  0  0  0
   14.8600  -13.4720   21.8555 C   0  0  0  0  0  0  0  0  0  0  0  0
   12.3781  -12.5912   22.0962 C   0  0  0  0  0  0  0  0  0  0  0  0
   19.6056  -14.1497   20.2864 C   0  0  0  0  0  0  0  0  0  0  0  0
   16.1012  -14.2088   21.7854 C   0  0  0  0  0  0  0  0  0  0  0  0
   11.5315  -11.4530   22.6915 C   0  0  0  0  0  0  0  0  0  0  0  0
   16.4897  -14.8320   22.7452 O   0  0  0  0  0  0  0  0  0  0  0  0
   16.8502  -14.6142   20.7327 N   0  0  0  0  0  0  0  0  0  0  0  0
   11.9410  -10.6046   23.5629 C   0  0  0  0  0  0  0  0  0  0  0  0
   20.0897  -13.5250   21.4492 C   0  0  0  0  0  0  0  0  0  0  0  0
   11.1591  -10.2845   24.7738 N   0  0  0  0  0  0  0  0  0  0  0  0
  1  2  1  0
  1  3  1  0
  4  3  1  6
  1  5  1  1
  4  6  1  0
  2  7  1  0
  4  7  1  0
  7  8  1  0
  6  9  1  1
  8 10  1  1
  8 11  1  0
 10 12  1  0
  9 13  1  0
 11 14  1  0
 12 15  1  0
 14 16  2  0
  6 17  1  0
 14 17  1  0
 15 18  1  0
 13 19  1  0
 18 20  1  0
M  END
$$$$
41
     RDKit          3D

 21 24  0  0  0  0  0  0  0  0999 V2000
   20.3239  -13.0287   19.5465 C   0  0  0  0  0  0  0  0  0  0  0  0
   19.2519  -13.1171   18.8582 C   0  0  0  0  0  0  0  0  0  0  0  0
   18.1330  -13.1831   19.4483 C   0  0  0  0  0  0  0  0  0  0  0  0
   16.8348  -13.2347   18.6847 C   0  0  0  0  0  0  0  0  0  0  0  0
   17.9654  -13.2500   20.8670 C   0  0  2  0  0  0  0  0  0  0  0  0
   20.3412  -13.1227   20.9693 C   0  0  0  0  0  0  0  0  0  0  0  0
   19.0608  -13.3053   21.6305 C   0  0  0  0  0  0  0  0  0  0  0  0
   16.8311  -12.9981   17.4742 O   0  0  0  0  0  0  0  0  0  0  0  0
   15.5146  -13.4219   19.2910 N   0  0  0  0  0  0  0  0  0  0  0  0
   14.3384  -13.1022   18.6157 C   0  0  0  0  0  0  0  0  0  0  0  0
   13.3701  -13.0162   19.6777 C   0  0  0  0  0  0  0  0  0  0  0  0
   13.8574  -12.5560   20.9937 C   0  0  2  0  0  0  0  0  0  0  0  0
   15.1149  -12.6005   21.2678 C   0  0  0  0  0  0  0  0  0  0  0  0
   15.9863  -13.2124   20.6446 C   0  0  1  0  0  0  0  0  0  0  0  0
   16.7612  -13.4090   21.5865 C   0  0  0  0  0  0  0  0  0  0  0  0
   12.4798  -12.1703   21.9067 C   0  0  0  0  0  0  0  0  0  0  0  0
   12.5189  -10.8408   22.3860 C   0  0  0  0  0  0  0  0  0  0  0  0
   11.6381  -10.4592   23.4329 C   0  0  0  0  0  0  0  0  0  0  0  0
   10.9679  -11.4264   24.1175 C   0  0  0  0  0  0  0  0  0  0  0  0
   10.9757  -12.7493   23.6763 C   0  0  0  0  0  0  0  0  0  0  0  0
   11.6373  -13.1042   22.4327 C   0  0  0  0  0  0  0  0  0  0  0  0
  1  2  1  0
  2  3  1  0
  3  4  1  0
  3  5  1  0
  1  6  1  0
  5  7  1  6
  6  7  1  0
  4  8  2  0
  4  9  1  0
  9 10  1  0
 10 11  1  0
 11 12  1  0
 12 13  1  0
  9 14  1  0
 14 13  1  1
  5 15  1  0
 14 15  1  0
 12 16  1  1
 16 17  1  0
 17 18  1  0
 18 19  1  0
 19 20  1  0
 16 21  1  0
 20 21  1  0
M  END
$$$$
42
     RDKit          3D

 21 24  0  0  0  0  0  0  0  0999 V2000
   11.1280  -11.3783   24.2954 C   0  0  2  0  0  0  0  0  0  0  0  0
   11.5647  -12.3289   23.4261 C   0  0  0  0  0  0  0  0  0  0  0  0
   12.2915  -11.7482   22.3996 C   0  0  2  0  0  0  0  0  0  0  0  0
   10.3476  -11.6934   25.5229 N   0  0  0  0  0  0  0  0  0  0  0  0
   13.0418  -12.4954   21.3904 C   0  0  2  0  0  0  0  0  0  0  0  0
   13.6067  -11.9274   20.2745 C   0  0  2  0  0  0  0  0  0  0  0  0
   11.2414   -9.9428   24.0385 C   0  0  0  0  0  0  0  0  0  0  0  0
   12.6069  -10.3683   22.1964 C   0  0  1  0  0  0  0  0  0  0  0  0
   13.0795  -14.0277   21.3685 C   0  0  2  0  0  0  0  0  0  0  0  0
   13.6501  -10.5222   20.1978 C   0  0  0  0  0  0  0  0  0  0  0  0
   14.1820  -12.6125   18.9561 C   0  0  1  0  0  0  0  0  0  0  0  0
   12.6913  -14.8125   22.2493 N   0  0  0  0  0  0  0  0  0  0  0  0
   14.7014  -11.9870   18.0809 N   0  0  0  0  0  0  0  0  0  0  0  0
   13.1506   -9.8081   21.2728 C   0  0  0  0  0  0  0  0  0  0  0  0
   13.7055  -14.7172   20.2811 C   0  0  1  0  0  0  0  0  0  0  0  0
   14.2874  -14.0250   19.3097 C   0  0  0  0  0  0  0  0  0  0  0  0
   13.9381  -11.4883   17.1458 O   0  0  0  0  0  0  0  0  0  0  0  0
   11.9846   -9.5323   23.2157 C   0  0  0  0  0  0  0  0  0  0  0  0
   15.8136  -12.7090   17.4056 C   0  0  0  0  0  0  0  0  0  0  0  0
   12.8932  -16.0622   21.7786 C   0  0  0  0  0  0  0  0  0  0  0  0
   13.6151  -16.0349   20.6325 N   0  0  0  0  0  0  0  0  0  0  0  0
  1  2  1  0
  3  2  1  1
  1  4  1  6
  5  3  1  6
  5  6  1  0
  1  7  1  0
  3  8  1  0
  5  9  1  0
  6 10  1  6
  6 11  1  0
  9 12  1  1
 11 13  1  1
  8 14  1  6
 10 14  1  0
  9 15  1  0
 11 16  1  0
 15 16  1  1
 13 17  1  0
  7 18  1  0
  8 18  1  0
 13 19  1  0
 12 20  1  0
 15 21  1  0
 20 21  1  0
M  END
$$$$
43
     RDKit          3D

 21 23  0  0  0  0  0  0  0  0999 V2000
   11.1280  -11.3783   24.2954 C   0  0  0  0  0  0  0  0  0  0  0  0
   11.5647  -12.3289   23.4261 C   0  0  0  0  0  0  0  0  0  0  0  0
   12.4024  -11.9600   22.3996 C   0  0  0  0  0  0  0  0  0  0  0  0
   11.7022  -10.0481   24.1223 C   0  0  0  0  0  0  0  0  0  0  0  0
   11.3538   -8.9972   25.1098 C   0  0  0  0  0  0  0  0  0  0  0  0
   12.6790   -9.9352   23.1303 C   0  0  0  0  0  0  0  0  0  0  0  0
   12.9504  -10.7555   22.2243 C   0  0  0  0  0  0  0  0  0  0  0  0
   12.7301  -13.0105   21.3588 C   0  0  0  0  0  0  0  0  0  0  0  0
   12.3658  -14.1917   21.4237 N   0  0  0  0  0  0  0  0  0  0  0  0
   13.4848  -12.6916   20.1676 N   0  0  0  0  0  0  0  0  0  0  0  0
   13.6608  -13.8455   19.4892 C   0  0  1  0  0  0  0  0  0  0  0  0
   14.7030  -13.9319   18.5060 C   0  0  0  0  0  0  0  0  0  0  0  0
   12.9728  -14.8371   20.2962 N   0  0  0  0  0  0  0  0  0  0  0  0
   15.2894  -12.7572   18.0488 C   0  0  0  0  0  0  0  0  0  0  0  0
   16.6107  -12.8956   17.3399 C   0  0  0  0  0  0  0  0  0  0  0  0
   17.7042  -13.1275   18.2405 C   0  0  2  0  0  0  0  0  0  0  0  0
   18.9291  -13.4205   17.9501 O   0  0  0  0  0  0  0  0  0  0  0  0
   17.3721  -13.4447   19.6698 C   0  0  0  0  0  0  0  0  0  0  0  0
   18.5238  -13.4097   20.3951 C   0  0  0  0  0  0  0  0  0  0  0  0
   19.8677  -13.2794   19.0186 C   0  0  0  0  0  0  0  0  0  0  0  0
   19.6063  -13.4114   20.2002 C   0  0  0  0  0  0  0  0  0  0  0  0
  1  2  1  0
  2  3  1  0
  1  4  1  0
  4  5  1  0
  4  6  1  0
  3  7  1  0
  6  7  1  0
  3  8  1  0
  8  9  2  0
  8 10  1  0
 10 11  1  0
 11 12  1  1
  9 13  1  0
 11 13  1  0
 12 14  1  0
 14 15  1  0
 16 15  1  6
 16 17  1  0
 16 18  1  0
 18 19  1  0
 17 20  1  0
 19 21  1  0
 20 21  1  0
M  END
$$$$
44
     RDKit          3D

 22 24  0  0  0  0  0  0  0  0999 V2000
   13.5718  -11.5939   19.1816 C   0  0  0  0  0  0  0  0  0  0  0  0
   14.6610  -12.2120   19.3703 C   0  0  1  0  0  0  0  0  0  0  0  0
   12.9534  -11.1365   20.0975 C   0  0  0  0  0  0  0  0  0  0  0  0
   13.2398  -11.5430   21.4185 C   0  0  0  0  0  0  0  0  0  0  0  0
   15.0422  -12.7521   20.7019 C   0  0  2  0  0  0  0  0  0  0  0  0
   14.2320  -12.2565   21.7317 C   0  0  0  0  0  0  0  0  0  0  0  0
   12.1517  -10.9854   22.6663 C   0  0  0  0  0  0  0  0  0  0  0  0
   15.5397  -12.7713   18.2676 C   0  0  0  0  0  0  0  0  0  0  0  0
   16.2397  -13.4823   20.9087 C   0  0  2  0  0  0  0  0  0  0  0  0
   17.0179  -13.8008   19.7679 C   0  0  0  0  0  0  0  0  0  0  0  0
   15.1470  -12.3690   16.9992 O   0  0  0  0  0  0  0  0  0  0  0  0
   12.5450   -9.9811   23.3429 C   0  0  0  0  0  0  0  0  0  0  0  0
   16.6627  -13.4529   18.4985 C   0  0  0  0  0  0  0  0  0  0  0  0
   11.7551  -12.1019   23.5270 C   0  0  0  0  0  0  0  0  0  0  0  0
   10.8970  -11.5526   24.4860 C   0  0  0  0  0  0  0  0  0  0  0  0
   11.3073  -10.2391   24.7369 C   0  0  0  0  0  0  0  0  0  0  0  0
   18.2355  -14.5741   19.9738 O   0  0  0  0  0  0  0  0  0  0  0  0
   16.6471  -13.9671   22.2613 O   0  0  0  0  0  0  0  0  0  0  0  0
   11.9995   -9.4510   24.0326 C   0  0  0  0  0  0  0  0  0  0  0  0
   19.4200  -13.8495   20.1548 C   0  0  0  0  0  0  0  0  0  0  0  0
   20.0306  -13.8041   21.3885 C   0  0  0  0  0  0  0  0  0  0  0  0
   19.7203  -12.9750   19.2791 O   0  0  0  0  0  0  0  0  0  0  0  0
  2  1  1  6
  1  3  1  0
  3  4  1  0
  2  5  1  0
  4  6  1  0
  5  6  1  1
  4  7  1  0
  2  8  1  0
  5  9  1  0
  9 10  1  0
  8 11  2  0
  7 12  1  0
  8 13  1  0
 10 13  1  0
  7 14  1  0
 14 15  1  0
 15 16  1  0
 10 17  1  0
  9 18  1  6
 12 19  1  0
 16 19  1  0
 17 20  1  0
 20 21  1  0
 20 22  2  0
M  END
$$$$
45
     RDKit          3D

 22 25  0  0  0  0  0  0  0  0999 V2000
   20.3239  -13.0287   19.5465 C   0  0  0  0  0  0  0  0  0  0  0  0
   19.2519  -13.1171   18.8582 C   0  0  0  0  0  0  0  0  0  0  0  0
   18.1330  -13.1831   19.4483 C   0  0  0  0  0  0  0  0  0  0  0  0
   16.8348  -13.2347   18.6847 C   0  0  0  0  0  0  0  0  0  0  0  0
   17.9654  -13.2500   20.8670 C   0  0  2  0  0  0  0  0  0  0  0  0
   20.3412  -13.1227   20.9693 C   0  0  0  0  0  0  0  0  0  0  0  0
   19.0608  -13.3053   21.6305 C   0  0  0  0  0  0  0  0  0  0  0  0
   16.8311  -12.9981   17.4742 O   0  0  0  0  0  0  0  0  0  0  0  0
   15.5146  -13.4219   19.2910 N   0  0  0  0  0  0  0  0  0  0  0  0
   14.3384  -13.1022   18.6157 C   0  0  0  0  0  0  0  0  0  0  0  0
   13.3701  -13.0162   19.6777 C   0  0  0  0  0  0  0  0  0  0  0  0
   13.8574  -12.5560   20.9937 C   0  0  0  0  0  0  0  0  0  0  0  0
   15.1149  -12.6005   21.2678 C   0  0  0  0  0  0  0  0  0  0  0  0
   15.9863  -13.2124   20.6446 C   0  0  1  0  0  0  0  0  0  0  0  0
   16.7612  -13.4090   21.5865 C   0  0  0  0  0  0  0  0  0  0  0  0
   12.5904  -12.0807   21.8769 C   0  0  1  0  0  0  0  0  0  0  0  0
   11.6954  -12.8475   22.3521 C   0  0  0  0  0  0  0  0  0  0  0  0
   12.5389  -10.6400   22.2486 C   0  0  2  0  0  0  0  0  0  0  0  0
   13.3861   -9.6291   21.6923 F   0  0  0  0  0  0  0  0  0  0  0  0
   11.7543  -10.1995   23.2831 C   0  0  0  0  0  0  0  0  0  0  0  0
   10.8849  -12.4111   23.4419 C   0  0  0  0  0  0  0  0  0  0  0  0
   11.0116  -11.1054   23.9134 C   0  0  0  0  0  0  0  0  0  0  0  0
  1  2  1  0
  2  3  1  0
  3  4  1  0
  3  5  1  0
  1  6  1  0
  5  7  1  6
  6  7  1  0
  4  8  2  0
  4  9  1  0
  9 10  1  0
 10 11  1  0
 11 12  1  0
 12 13  1  0
  9 14  1  0
 14 13  1  1
  5 15  1  0
 14 15  1  0
 16 12  1  1
 16 17  1  0
 16 18  1  0
 18 19  1  1
 18 20  1  0
 17 21  1  0
 20 22  1  0
 21 22  1  0
M  END
$$$$
46
     RDKit          3D

 22 24  0  0  0  0  0  0  0  0999 V2000
   11.9009  -11.1573   21.8386 C   0  0  0  0  0  0  0  0  0  0  0  0
   11.7800  -11.2356   23.0061 C   0  0  2  0  0  0  0  0  0  0  0  0
   12.9939  -11.6378   21.2597 C   0  0  1  0  0  0  0  0  0  0  0  0
   11.0682  -10.4274   23.9300 C   0  0  0  0  0  0  0  0  0  0  0  0
   12.6454  -12.3267   23.4311 O   0  0  0  0  0  0  0  0  0  0  0  0
   10.5889  -10.8714   25.0372 O   0  0  0  0  0  0  0  0  0  0  0  0
   13.3359  -12.6270   22.2792 C   0  0  2  0  0  0  0  0  0  0  0  0
   13.6519  -11.5884   20.0342 O   0  0  0  0  0  0  0  0  0  0  0  0
   14.3693  -13.5271   22.0618 N   0  0  0  0  0  0  0  0  0  0  0  0
   15.0710  -13.5293   21.0666 C   0  0  2  0  0  0  0  0  0  0  0  0
   16.3042  -14.2317   20.9631 C   0  0  0  0  0  0  0  0  0  0  0  0
   17.4561  -13.7463   20.4133 C   0  0  1  0  0  0  0  0  0  0  0  0
   16.5164  -15.6015   21.4928 C   0  0  0  0  0  0  0  0  0  0  0  0
   14.8115  -12.7756   19.8761 C   0  0  0  0  0  0  0  0  0  0  0  0
   17.6323  -12.4189   19.8441 O   0  0  0  0  0  0  0  0  0  0  0  0
   18.7190  -14.4846   20.4430 C   0  0  1  0  0  0  0  0  0  0  0  0
   19.9224  -13.8089   19.8996 C   0  0  0  0  0  0  0  0  0  0  0  0
   20.9142  -13.5319   20.8122 F   0  0  0  0  0  0  0  0  0  0  0  0
   20.4026  -14.5176   18.9668 F   0  0  0  0  0  0  0  0  0  0  0  0
   17.6721  -16.1749   21.5503 C   0  0  0  0  0  0  0  0  0  0  0  0
   18.8080  -15.6601   21.0930 C   0  0  0  0  0  0  0  0  0  0  0  0
   19.6953  -12.5846   19.2754 F   0  0  0  0  0  0  0  0  0  0  0  0
  1  2  1  0
  3  1  1  6
  2  4  1  1
  2  5  1  0
  4  6  1  0
  3  7  1  0
  5  7  1  0
  3  8  1  0
  7  9  1  1
  9 10  1  0
 10 11  1  1
 11 12  1  0
 11 13  1  0
  8 14  1  0
 10 14  1  0
 12 15  1  1
 12 16  1  0
 16 17  1  1
 17 18  1  0
 17 19  1  0
 13 20  1  0
 16 21  1  0
 20 21  1  0
 17 22  1  0
M  END
$$$$
47
     RDKit          3D

 22 25  0  0  0  0  0  0  0  0999 V2000
   11.1280  -11.3783   24.2954 C   0  0  0  0  0  0  0  0  0  0  0  0
   11.5647  -12.3289   23.4261 C   0  0  0  0  0  0  0  0  0  0  0  0
   12.4024  -11.9600   22.3996 C   0  0  0  0  0  0  0  0  0  0  0  0
   11.7022  -10.0481   24.1223 C   0  0  0  0  0  0  0  0  0  0  0  0
   11.3538   -8.9972   25.1098 C   0  0  0  0  0  0  0  0  0  0  0  0
   12.6790   -9.9352   23.1303 C   0  0  0  0  0  0  0  0  0  0  0  0
   12.9504  -10.7555   22.2243 C   0  0  0  0  0  0  0  0  0  0  0  0
   12.7301  -13.0105   21.3588 C   0  0  0  0  0  0  0  0  0  0  0  0
   12.3658  -14.1917   21.4237 N   0  0  0  0  0  0  0  0  0  0  0  0
   13.2002  -12.6633   20.0352 N   0  0  0  0  0  0  0  0  0  0  0  0
   13.4743  -13.8508   19.4037 C   0  0  2  0  0  0  0  0  0  0  0  0
   12.9032  -14.8249   20.2804 C   0  0  1  0  0  0  0  0  0  0  0  0
   14.8365  -13.8898   19.0796 C   0  0  0  0  0  0  0  0  0  0  0  0
   15.3391  -13.4141   18.0091 C   0  0  0  0  0  0  0  0  0  0  0  0
   15.7524  -14.5232   20.0089 C   0  0  2  0  0  0  0  0  0  0  0  0
   15.3891  -15.1021   21.2415 C   0  0  0  0  0  0  0  0  0  0  0  0
   17.1575  -14.2265   19.6286 C   0  0  0  0  0  0  0  0  0  0  0  0
   17.5254  -13.5723   18.4981 C   0  0  1  0  0  0  0  0  0  0  0  0
   19.0086  -13.4512   18.2474 O   0  0  0  0  0  0  0  0  0  0  0  0
   19.8591  -13.3036   19.3961 C   0  0  0  0  0  0  0  0  0  0  0  0
   13.9503  -15.5388   21.1630 C   0  0  0  0  0  0  0  0  0  0  0  0
   16.6081  -13.1695   17.6024 C   0  0  0  0  0  0  0  0  0  0  0  0
  1  2  1  0
  2  3  1  0
  1  4  1  0
  4  5  1  0
  4  6  1  0
  3  7  1  0
  6  7  1  0
  3  8  1  0
  8  9  2  0
  8 10  1  0
 11 10  1  1
  9 12  1  0
 11 12  1  0
 11 13  1  0
 13 14  1  0
 13 15  1  0
 15 16  1  1
 15 17  1  0
 17 18  1  0
 18 19  1  6
 19 20  1  0
 12 21  1  1
 16 21  1  0
 14 22  1  0
 18 22  1  0
M  END
$$$$
48
     RDKit          3D

 23 25  0  0  0  0  0  0  0  0999 V2000
   20.4163  -12.7958   19.5431 C   0  0  0  0  0  0  0  0  0  0  0  0
   19.3261  -12.9941   18.8427 C   0  0  0  0  0  0  0  0  0  0  0  0
   18.2100  -13.6288   19.4283 C   0  0  2  0  0  0  0  0  0  0  0  0
   20.4117  -13.1752   20.9240 C   0  0  0  0  0  0  0  0  0  0  0  0
   19.2738  -13.7147   21.5190 C   0  0  0  0  0  0  0  0  0  0  0  0
   16.9191  -13.7575   18.7047 C   0  0  0  0  0  0  0  0  0  0  0  0
   18.1770  -14.0276   20.7334 C   0  0  1  0  0  0  0  0  0  0  0  0
   16.8332  -14.3927   21.2194 C   0  0  2  0  0  0  0  0  0  0  0  0
   16.7831  -14.9126   22.5232 O   0  0  0  0  0  0  0  0  0  0  0  0
   15.7341  -14.5555   20.4368 C   0  0  0  0  0  0  0  0  0  0  0  0
   16.3039  -16.1037   22.8056 C   0  0  0  0  0  0  0  0  0  0  0  0
   15.7997  -14.0689   19.2505 C   0  0  0  0  0  0  0  0  0  0  0  0
   17.0621  -16.7285   23.9394 N   0  0  0  0  0  0  0  0  0  0  0  0
   15.5509  -16.8802   22.2243 O   0  0  0  0  0  0  0  0  0  0  0  0
   17.9082  -15.8204   24.7670 C   0  0  0  0  0  0  0  0  0  0  0  0
   16.8658  -17.9322   24.4907 C   0  0  0  0  0  0  0  0  0  0  0  0
   17.6293  -18.2306   25.5427 C   0  0  2  0  0  0  0  0  0  0  0  0
   18.8086  -16.4530   25.5430 C   0  0  1  0  0  0  0  0  0  0  0  0
   17.4834  -19.6639   25.9523 O   0  0  0  0  0  0  0  0  0  0  0  0
   19.8010  -15.5437   26.2573 C   0  0  0  0  0  0  0  0  0  0  0  0
   18.3176  -17.4508   26.3784 C   0  0  0  0  0  0  0  0  0  0  0  0
   19.9112  -14.1590   25.9157 C   0  0  0  0  0  0  0  0  0  0  0  0
   21.1560  -13.5463   26.0926 C   0  0  0  0  0  0  0  0  0  0  0  0
  1  2  1  0
  3  2  1  1
  1  4  1  0
  4  5  1  0
  3  6  1  0
  3  7  1  0
  7  5  1  1
  7  8  1  0
  8  9  1  6
  8 10  1  0
  9 11  1  0
  6 12  1  0
 10 12  1  0
 11 13  1  0
 11 14  2  0
 13 15  1  0
 13 16  1  0
 16 17  1  0
 15 18  1  0
 17 19  1  1
 18 20  1  1
 17 21  1  0
 18 21  1  0
 20 22  1  0
 22 23  1  0
M  END
$$$$
49
     RDKit          3D

 23 26  0  0  0  0  0  0  0  0999 V2000
   11.1280  -11.3783   24.2954 C   0  0  0  0  0  0  0  0  0  0  0  0
   11.5647  -12.3289   23.4261 C   0  0  0  0  0  0  0  0  0  0  0  0
   12.4024  -11.9600   22.3996 C   0  0  0  0  0  0  0  0  0  0  0  0
   11.7022  -10.0481   24.1223 C   0  0  0  0  0  0  0  0  0  0  0  0
   11.3538   -8.9972   25.1098 C   0  0  0  0  0  0  0  0  0  0  0  0
   12.6790   -9.9352   23.1303 C   0  0  0  0  0  0  0  0  0  0  0  0
   12.9504  -10.7555   22.2243 C   0  0  0  0  0  0  0  0  0  0  0  0
   12.7301  -13.0105   21.3588 C   0  0  0  0  0  0  0  0  0  0  0  0
   12.3658  -14.1917   21.4237 N   0  0  0  0  0  0  0  0  0  0  0  0
   13.2002  -12.6633   20.0352 N   0  0  0  0  0  0  0  0  0  0  0  0
   13.4743  -13.8508   19.4037 C   0  0  2  0  0  0  0  0  0  0  0  0
   12.9032  -14.8249   20.2804 C   0  0  1  0  0  0  0  0  0  0  0  0
   14.8365  -13.8898   19.0796 C   0  0  0  0  0  0  0  0  0  0  0  0
   15.3391  -13.4141   18.0091 C   0  0  1  0  0  0  0  0  0  0  0  0
   15.7524  -14.5232   20.0089 C   0  0  2  0  0  0  0  0  0  0  0  0
   15.3891  -15.1021   21.2415 C   0  0  0  0  0  0  0  0  0  0  0  0
   17.1575  -14.2265   19.6286 C   0  0  0  0  0  0  0  0  0  0  0  0
   17.5254  -13.5723   18.4981 C   0  0  2  0  0  0  0  0  0  0  0  0
   19.0086  -13.4512   18.2474 O   0  0  0  0  0  0  0  0  0  0  0  0
   19.8591  -13.3036   19.3961 C   0  0  0  0  0  0  0  0  0  0  0  0
   13.9503  -15.5388   21.1630 C   0  0  0  0  0  0  0  0  0  0  0  0
   14.3541  -12.8718   17.0122 F   0  0  0  0  0  0  0  0  0  0  0  0
   16.6143  -12.8827   17.7244 C   0  0  0  0  0  0  0  0  0  0  0  0
  1  2  1  0
  2  3  1  0
  1  4  1  0
  4  5  1  0
  4  6  1  0
  3  7  1  0
  6  7  1  0
  3  8  1  0
  8  9  2  0
  8 10  1  0
 11 10  1  1
  9 12  1  0
 11 12  1  0
 11 13  1  0
 13 14  1  0
 13 15  1  0
 15 16  1  1
 15 17  1  0
 17 18  1  0
 18 19  1  1
 19 20  1  0
 12 21  1  1
 16 21  1  0
 14 22  1  1
 14 23  1  0
 18 23  1  0
M  END
$$$$
5
     RDKit          3D

 11 12  0  0  0  0  0  0  0  0999 V2000
   11.1858  -10.9447   23.7365 C   0  0  0  0  0  0  0  0  0  0  0  0
   11.5109  -12.0519   23.0248 C   0  0  0  0  0  0  0  0  0  0  0  0
   12.5106  -12.1126   22.0603 C   0  0  0  0  0  0  0  0  0  0  0  0
   12.1645   -9.8556   23.6057 C   0  0  0  0  0  0  0  0  0  0  0  0
   13.1430   -9.9275   22.5808 C   0  0  0  0  0  0  0  0  0  0  0  0
   13.1676  -11.1724   21.8193 C   0  0  0  0  0  0  0  0  0  0  0  0
   12.6108  -13.3016   21.1466 C   0  0  0  0  0  0  0  0  0  0  0  0
   12.1864  -14.4844   21.3789 N   0  0  0  0  0  0  0  0  0  0  0  0
   12.3952  -15.3987   20.4087 C   0  0  0  0  0  0  0  0  0  0  0  0
   13.3865  -13.0877   20.0178 N   0  0  0  0  0  0  0  0  0  0  0  0
   13.3521  -14.4562   19.4187 C   0  0  0  0  0  0  0  0  0  0  0  0
  1  2  1  0
  2  3  1  0
  1  4  1  0
  4  5  1  0
  3  6  1  0
  5  6  1  0
  3  7  1  0
  7  8  1  0
  8  9  1  0
  7 10  1  0
  9 11  1  0
 10 11  1  0
M  END
$$$$
50
     RDKit          3D

 23 26  0  0  0  0  0  0  0  0999 V2000
   20.3239  -13.0287   19.5465 C   0  0  0  0  0  0  0  0  0  0  0  0
   19.2519  -13.1171   18.8582 C   0  0  0  0  0  0  0  0  0  0  0  0
   18.1330  -13.1831   19.4483 C   0  0  0  0  0  0  0  0  0  0  0  0
   16.8348  -13.2347   18.6847 C   0  0  0  0  0  0  0  0  0  0  0  0
   17.9654  -13.2500   20.8670 C   0  0  2  0  0  0  0  0  0  0  0  0
   20.3412  -13.1227   20.9693 C   0  0  0  0  0  0  0  0  0  0  0  0
   19.0608  -13.3053   21.6305 C   0  0  0  0  0  0  0  0  0  0  0  0
   16.8311  -12.9981   17.4742 O   0  0  0  0  0  0  0  0  0  0  0  0
   15.5146  -13.4219   19.2910 N   0  0  0  0  0  0  0  0  0  0  0  0
   14.3384  -13.1022   18.6157 C   0  0  0  0  0  0  0  0  0  0  0  0
   13.3701  -13.0162   19.6777 C   0  0  0  0  0  0  0  0  0  0  0  0
   13.8574  -12.5560   20.9937 C   0  0  0  0  0  0  0  0  0  0  0  0
   15.1149  -12.6005   21.2678 C   0  0  0  0  0  0  0  0  0  0  0  0
   15.9863  -13.2124   20.6446 C   0  0  1  0  0  0  0  0  0  0  0  0
   16.7612  -13.4090   21.5865 C   0  0  0  0  0  0  0  0  0  0  0  0
   12.5904  -12.0807   21.8769 C   0  0  1  0  0  0  0  0  0  0  0  0
   11.6954  -12.8475   22.3521 C   0  0  1  0  0  0  0  0  0  0  0  0
   12.5389  -10.6400   22.2486 C   0  0  2  0  0  0  0  0  0  0  0  0
   13.3861   -9.6291   21.6923 F   0  0  0  0  0  0  0  0  0  0  0  0
   11.7543  -10.1995   23.2831 C   0  0  0  0  0  0  0  0  0  0  0  0
   11.6520  -14.2787   22.0873 N   0  0  0  0  0  0  0  0  0  0  0  0
   11.0044  -12.3713   23.6049 C   0  0  0  0  0  0  0  0  0  0  0  0
   11.0518  -11.0318   23.9557 C   0  0  0  0  0  0  0  0  0  0  0  0
  1  2  1  0
  2  3  1  0
  3  4  1  0
  3  5  1  0
  1  6  1  0
  5  7  1  6
  6  7  1  0
  4  8  2  0
  4  9  1  0
  9 10  1  0
 10 11  1  0
 11 12  1  0
 12 13  1  0
  9 14  1  0
 14 13  1  1
  5 15  1  0
 14 15  1  0
 16 12  1  1
 16 17  1  0
 16 18  1  0
 18 19  1  1
 18 20  1  0
 17 21  1  1
 17 22  1  0
 20 23  1  0
 22 23  1  0
M  END
$$$$
51
     RDKit          3D

 23 25  0  0  0  0  0  0  0  0999 V2000
   11.0446  -11.5386   24.8740 C   0  0  0  0  0  0  0  0  0  0  0  0
   11.5400  -10.5345   24.1482 C   0  0  0  0  0  0  0  0  0  0  0  0
   10.8959  -12.6055   23.9309 N   0  0  0  0  0  0  0  0  0  0  0  0
   12.0719  -10.6770   22.9387 C   0  0  0  0  0  0  0  0  0  0  0  0
   11.3572  -12.7526   22.7673 C   0  0  0  0  0  0  0  0  0  0  0  0
   11.9402  -11.6896   22.1924 C   0  0  2  0  0  0  0  0  0  0  0  0
   12.5518  -11.7069   20.6656 C   0  0  0  0  0  0  0  0  0  0  0  0
   13.0413  -10.5832   20.2652 O   0  0  0  0  0  0  0  0  0  0  0  0
   12.7075  -12.8073   20.0388 N   0  0  0  0  0  0  0  0  0  0  0  0
   13.6028  -12.7487   18.8845 C   0  0  0  0  0  0  0  0  0  0  0  0
   14.6086  -13.9640   18.9479 C   0  0  1  0  0  0  0  0  0  0  0  0
   15.8822  -13.6728   18.3969 C   0  0  0  0  0  0  0  0  0  0  0  0
   14.3489  -15.0641   19.6716 C   0  0  0  0  0  0  0  0  0  0  0  0
   16.9731  -14.5399   18.6871 C   0  0  2  0  0  0  0  0  0  0  0  0
   16.6921  -15.6384   19.5012 C   0  0  0  0  0  0  0  0  0  0  0  0
   15.4348  -15.8333   20.0344 C   0  0  0  0  0  0  0  0  0  0  0  0
   18.2994  -14.2351   18.2320 C   0  0  0  0  0  0  0  0  0  0  0  0
   18.9434  -13.0752   18.9590 N   0  0  0  0  0  0  0  0  0  0  0  0
   20.1836  -13.1545   19.0034 C   0  0  0  0  0  0  0  0  0  0  0  0
   20.8086  -12.9644   20.2623 C   0  0  0  0  0  0  0  0  0  0  0  0
   19.8229  -13.3522   21.4104 C   0  0  0  0  0  0  0  0  0  0  0  0
   18.4349  -13.2110   21.1060 C   0  0  0  0  0  0  0  0  0  0  0  0
   18.0787  -13.1501   20.0131 C   0  0  0  0  0  0  0  0  0  0  0  0
  1  2  1  0
  1  3  1  0
  2  4  1  0
  3  5  1  0
  4  6  1  0
  5  6  1  0
  6  7  1  1
  7  8  2  0
  7  9  1  0
  9 10  1  0
 11 10  1  1
 11 12  1  0
 11 13  1  0
 12 14  1  0
 14 15  1  0
 13 16  1  0
 15 16  1  0
 14 17  1  1
 17 18  1  0
 18 19  1  0
 19 20  1  0
 20 21  1  0
 21 22  1  0
 18 23  1  0
 22 23  1  0
M  END
$$$$
52
     RDKit          3D

 23 25  0  0  0  0  0  0  0  0999 V2000
   10.9601  -11.8532   24.5194 C   0  0  0  0  0  0  0  0  0  0  0  0
   11.4455  -12.6689   23.5262 N   0  0  0  0  0  0  0  0  0  0  0  0
   11.1685  -10.5286   24.3245 C   0  0  0  0  0  0  0  0  0  0  0  0
   12.2049  -12.2640   22.5656 C   0  0  2  0  0  0  0  0  0  0  0  0
   12.8017  -13.0940   21.6182 C   0  0  2  0  0  0  0  0  0  0  0  0
   12.5596  -10.8987   22.4456 C   0  0  0  0  0  0  0  0  0  0  0  0
   12.0389  -10.0063   23.4058 C   0  0  0  0  0  0  0  0  0  0  0  0
   13.4336  -10.4814   21.3861 C   0  0  0  0  0  0  0  0  0  0  0  0
   12.5521  -14.5894   21.6279 C   0  0  0  0  0  0  0  0  0  0  0  0
   13.7299  -12.6639   20.8007 C   0  0  2  0  0  0  0  0  0  0  0  0
   13.9517  -11.3877   20.5632 N   0  0  0  0  0  0  0  0  0  0  0  0
   13.1697  -15.3170   20.6116 N   0  0  0  0  0  0  0  0  0  0  0  0
   14.1209  -13.6953   19.9191 C   0  0  2  0  0  0  0  0  0  0  0  0
   13.9400  -14.8640   19.8900 C   0  0  0  0  0  0  0  0  0  0  0  0
   15.2416  -13.0973   18.8627 C   0  0  0  0  0  0  0  0  0  0  0  0
   14.8353  -12.9050   17.6682 O   0  0  0  0  0  0  0  0  0  0  0  0
   16.5031  -12.6799   19.2174 N   0  0  0  0  0  0  0  0  0  0  0  0
   17.0332  -12.9684   20.4656 C   0  0  0  0  0  0  0  0  0  0  0  0
   17.8451  -14.2623   20.5007 C   0  0  0  0  0  0  0  0  0  0  0  0
   16.4010  -12.8130   21.7041 O   0  0  0  0  0  0  0  0  0  0  0  0
   19.2729  -13.8495   20.3258 C   0  0  1  0  0  0  0  0  0  0  0  0
   19.6646  -13.4734   19.1347 O   0  0  0  0  0  0  0  0  0  0  0  0
   19.8788  -12.9698   21.3163 C   0  0  0  0  0  0  0  0  0  0  0  0
  1  2  1  0
  1  3  1  0
  4  2  1  1
  4  5  1  0
  4  6  1  0
  3  7  1  0
  6  7  1  0
  6  8  1  0
  5  9  1  1
  5 10  1  0
  8 11  1  0
 10 11  1  6
  9 12  1  0
 10 13  1  0
 12 14  1  0
 13 14  1  0
 13 15  1  1
 15 16  2  0
 15 17  1  0
 17 18  1  0
 18 19  1  0
 18 20  2  0
 19 21  1  0
 21 22  1  0
 21 23  1  1
M  END
$$$$
53
     RDKit          3D

 23 26  0  0  0  0  0  0  0  0999 V2000
   20.7342  -15.2754   26.6108 C   0  0  0  0  0  0  0  0  0  0  0  0
   20.8682  -13.9757   26.4142 C   0  0  0  0  0  0  0  0  0  0  0  0
   19.5120  -15.8746   26.1244 C   0  0  0  0  0  0  0  0  0  0  0  0
   20.2393  -13.4328   25.1633 C   0  0  0  0  0  0  0  0  0  0  0  0
   18.9387  -15.4632   25.2798 C   0  0  0  0  0  0  0  0  0  0  0  0
   17.7402  -16.0440   24.5560 C   0  0  0  0  0  0  0  0  0  0  0  0
   17.3003  -15.4601   23.4080 N   0  0  0  0  0  0  0  0  0  0  0  0
   16.2224  -15.9430   22.6646 C   0  0  0  0  0  0  0  0  0  0  0  0
   19.1857  -14.1741   24.5878 C   0  0  2  0  0  0  0  0  0  0  0  0
   15.9743  -15.2252   21.4149 C   0  0  2  0  0  0  0  0  0  0  0  0
   16.6915  -14.1335   21.1318 C   0  0  1  0  0  0  0  0  0  0  0  0
   14.8436  -15.7489   20.5816 C   0  0  0  0  0  0  0  0  0  0  0  0
   17.0776  -17.0796   24.9789 O   0  0  0  0  0  0  0  0  0  0  0  0
   14.6432  -15.0173   19.3228 C   0  0  0  0  0  0  0  0  0  0  0  0
   15.4715  -13.9247   18.9788 C   0  0  1  0  0  0  0  0  0  0  0  0
   15.2700  -13.2101   17.7766 C   0  0  1  0  0  0  0  0  0  0  0  0
   14.4086  -12.0863   17.9214 N   0  0  0  0  0  0  0  0  0  0  0  0
   17.8683  -13.7534   21.8862 C   0  0  0  0  0  0  0  0  0  0  0  0
   18.7012  -12.7024   21.4933 O   0  0  0  0  0  0  0  0  0  0  0  0
   16.5354  -12.6830   17.1715 C   0  0  0  0  0  0  0  0  0  0  0  0
   16.4401  -13.4114   19.8764 C   0  0  0  0  0  0  0  0  0  0  0  0
   19.8672  -12.9551   20.7007 C   0  0  0  0  0  0  0  0  0  0  0  0
   18.3204  -14.3561   23.1351 C   0  0  2  0  0  0  0  0  0  0  0  0
  1  2  1  0
  1  3  1  0
  2  4  1  0
  3  5  1  0
  5  6  1  0
  6  7  1  0
  7  8  1  0
  9  4  1  6
  5  9  1  0
 10  8  1  1
 10 11  1  0
 10 12  1  0
  6 13  2  0
 12 14  1  0
 15 14  1  1
 15 16  1  0
 16 17  1  0
 11 18  1  0
 18 19  1  0
 16 20  1  1
 11 21  1  6
 15 21  1  0
 19 22  1  0
  7 23  1  0
  9 23  1  0
 23 18  1  1
M  END
$$$$
54
     RDKit          3D

 23 27  0  0  0  0  0  0  0  0999 V2000
   12.2371  -10.7362   21.1563 C   0  0  0  0  0  0  0  0  0  0  0  0
   12.1569  -10.8552   22.5034 C   0  0  1  0  0  0  0  0  0  0  0  0
   12.2555   -9.6597   23.3133 C   0  0  0  0  0  0  0  0  0  0  0  0
   11.8279   -9.7930   24.6367 C   0  0  0  0  0  0  0  0  0  0  0  0
   10.9972  -11.0189   24.7953 C   0  0  0  0  0  0  0  0  0  0  0  0
   11.1899  -12.0022   23.7940 C   0  0  0  0  0  0  0  0  0  0  0  0
   11.6809  -11.8966   22.6957 C   0  0  0  0  0  0  0  0  0  0  0  0
   11.8192  -12.7147   21.6905 N   0  0  0  0  0  0  0  0  0  0  0  0
   12.3363  -11.9908   20.6794 N   0  0  0  0  0  0  0  0  0  0  0  0
   12.1988  -14.1443   21.8618 C   0  0  0  0  0  0  0  0  0  0  0  0
   13.4742  -14.4824   21.3278 C   0  0  1  0  0  0  0  0  0  0  0  0
   13.6973  -15.7678   21.0174 C   0  0  0  0  0  0  0  0  0  0  0  0
   13.9382  -13.7235   20.1967 C   0  0  0  0  0  0  0  0  0  0  0  0
   15.1072  -14.2564   19.5965 C   0  0  2  0  0  0  0  0  0  0  0  0
   13.2628  -12.4999   19.7242 C   0  0  0  0  0  0  0  0  0  0  0  0
   13.4535  -12.0089   18.5548 O   0  0  0  0  0  0  0  0  0  0  0  0
   15.0209  -15.6954   20.2331 N   0  0  0  0  0  0  0  0  0  0  0  0
   16.0854  -13.8268   18.8287 C   0  0  0  0  0  0  0  0  0  0  0  0
   17.3791  -13.5124   19.4048 C   0  0  0  0  0  0  0  0  0  0  0  0
   17.4623  -13.1463   20.7743 C   0  0  0  0  0  0  0  0  0  0  0  0
   18.8165  -12.8796   21.3639 C   0  0  0  0  0  0  0  0  0  0  0  0
   18.6887  -13.4768   18.8533 C   0  0  0  0  0  0  0  0  0  0  0  0
   19.7598  -13.1872   19.7520 C   0  0  0  0  0  0  0  0  0  0  0  0
  2  1  1  6
  2  3  1  0
  3  4  1  0
  4  5  1  0
  5  6  1  0
  2  7  1  0
  6  7  1  0
  7  8  1  0
  1  9  1  0
  8  9  1  0
  8 10  1  0
 11 10  1  6
 11 12  1  0
 11 13  1  0
 13 14  1  0
  9 15  1  0
 13 15  1  0
 15 16  2  0
 12 17  1  0
 14 17  1  0
 14 18  1  1
 18 19  1  0
 19 20  1  0
 20 21  1  0
 19 22  1  0
 21 23  1  0
 22 23  1  0
M  END
$$$$
55
     RDKit          3D

 23 25  0  0  0  0  0  0  0  0999 V2000
   10.9601  -11.8532   24.5194 C   0  0  0  0  0  0  0  0  0  0  0  0
   11.4455  -12.6689   23.5262 N   0  0  0  0  0  0  0  0  0  0  0  0
   11.1685  -10.5286   24.3245 C   0  0  0  0  0  0  0  0  0  0  0  0
   12.2049  -12.2640   22.5656 C   0  0  2  0  0  0  0  0  0  0  0  0
   12.8017  -13.0940   21.6182 C   0  0  2  0  0  0  0  0  0  0  0  0
   12.5596  -10.8987   22.4456 C   0  0  0  0  0  0  0  0  0  0  0  0
   12.0389  -10.0063   23.4058 C   0  0  0  0  0  0  0  0  0  0  0  0
   13.4336  -10.4814   21.3861 C   0  0  0  0  0  0  0  0  0  0  0  0
   12.5521  -14.5894   21.6279 C   0  0  0  0  0  0  0  0  0  0  0  0
   13.7299  -12.6639   20.8007 C   0  0  2  0  0  0  0  0  0  0  0  0
   13.9517  -11.3877   20.5632 N   0  0  0  0  0  0  0  0  0  0  0  0
   13.1697  -15.3170   20.6116 N   0  0  0  0  0  0  0  0  0  0  0  0
   14.1209  -13.6953   19.9191 C   0  0  2  0  0  0  0  0  0  0  0  0
   13.9400  -14.8640   19.8900 C   0  0  0  0  0  0  0  0  0  0  0  0
   15.2416  -13.0973   18.8627 C   0  0  0  0  0  0  0  0  0  0  0  0
   14.8353  -12.9050   17.6682 O   0  0  0  0  0  0  0  0  0  0  0  0
   16.5031  -12.6799   19.2174 N   0  0  0  0  0  0  0  0  0  0  0  0
   17.0332  -12.9684   20.4656 C   0  0  0  0  0  0  0  0  0  0  0  0
   17.8451  -14.2623   20.5007 C   0  0  0  0  0  0  0  0  0  0  0  0
   16.4010  -12.8130   21.7041 O   0  0  0  0  0  0  0  0  0  0  0  0
   19.2729  -13.8495   20.3258 C   0  0  0  0  0  0  0  0  0  0  0  0
   19.6646  -13.4734   19.1347 O   0  0  0  0  0  0  0  0  0  0  0  0
   20.1189  -13.8903   21.2978 C   0  0  0  0  0  0  0  0  0  0  0  0
  1  2  1  0
  1  3  1  0
  4  2  1  1
  4  5  1  0
  4  6  1  0
  3  7  1  0
  6  7  1  0
  6  8  1  0
  5  9  1  1
  5 10  1  0
  8 11  1  0
 10 11  1  6
  9 12  1  0
 10 13  1  0
 12 14  1  0
 13 14  1  0
 13 15  1  1
 15 16  2  0
 15 17  1  0
 17 18  1  0
 18 19  1  0
 18 20  2  0
 19 21  1  0
 21 22  1  0
 21 23  2  0
M  END
$$$$
56
     RDKit          3D

 23 26  0  0  0  0  0  0  0  0999 V2000
   18.8474  -15.2292   25.3798 C   0  0  0  0  0  0  0  0  0  0  0  0
   19.8636  -14.6145   25.7915 C   0  0  2  0  0  0  0  0  0  0  0  0
   18.3886  -15.2762   24.0938 C   0  0  1  0  0  0  0  0  0  0  0  0
   19.1649  -14.6143   23.1188 C   0  0  2  0  0  0  0  0  0  0  0  0
   17.2326  -15.9637   23.5013 C   0  0  1  0  0  0  0  0  0  0  0  0
   20.2290  -14.5622   27.2237 C   0  0  0  0  0  0  0  0  0  0  0  0
   16.4514  -16.7283   24.4521 O   0  0  0  0  0  0  0  0  0  0  0  0
   20.5639  -13.7722   24.7852 C   0  0  0  0  0  0  0  0  0  0  0  0
   20.2477  -13.8146   23.5076 C   0  0  0  0  0  0  0  0  0  0  0  0
   16.5833  -15.3789   22.4543 C   0  0  0  0  0  0  0  0  0  0  0  0
   18.8126  -14.6037   21.6008 C   0  0  1  0  0  0  0  0  0  0  0  0
   17.4636  -14.9972   21.3772 C   0  0  0  0  0  0  0  0  0  0  0  0
   16.9260  -14.9933   19.8439 C   0  0  0  0  0  0  0  0  0  0  0  0
   16.0976  -13.7788   19.6280 N   0  0  0  0  0  0  0  0  0  0  0  0
   16.5368  -12.7276   18.9553 C   0  0  0  0  0  0  0  0  0  0  0  0
   14.6341  -14.1765   19.2710 C   0  0  2  0  0  0  0  0  0  0  0  0
   14.0071  -15.0095   19.9293 O   0  0  0  0  0  0  0  0  0  0  0  0
   19.6171  -13.6682   20.9130 C   0  0  0  0  0  0  0  0  0  0  0  0
   15.9623  -12.7462   17.7890 C   0  0  1  0  0  0  0  0  0  0  0  0
   20.7343  -13.2307   21.8752 C   0  0  0  0  0  0  0  0  0  0  0  0
   14.5063  -13.2894   17.9789 C   0  0  2  0  0  0  0  0  0  0  0  0
   13.5639  -12.3262   18.2187 O   0  0  0  0  0  0  0  0  0  0  0  0
   15.8900  -11.5190   16.9996 O   0  0  0  0  0  0  0  0  0  0  0  0
  1  2  1  0
  3  1  1  6
  3  4  1  0
  3  5  1  0
  2  6  1  1
  5  7  1  1
  2  8  1  0
  4  9  1  1
  8  9  1  0
  5 10  1  0
  4 11  1  0
 10 12  1  0
 11 12  1  0
 12 13  1  0
 13 14  1  0
 14 15  1  0
 14 16  1  0
 16 17  1  6
 11 18  1  1
 15 19  1  0
  9 20  1  0
 18 20  1  0
 16 21  1  0
 19 21  1  0
 21 22  1  1
 19 23  1  1
M  END
$$$$
57
     RDKit          3D

 24 26  0  0  0  0  0  0  0  0999 V2000
   18.8474  -15.2292   25.3798 C   0  0  0  0  0  0  0  0  0  0  0  0
   19.8636  -14.6145   25.7915 C   0  0  2  0  0  0  0  0  0  0  0  0
   18.3886  -15.2762   24.0938 C   0  0  1  0  0  0  0  0  0  0  0  0
   19.1649  -14.6143   23.1188 C   0  0  2  0  0  0  0  0  0  0  0  0
   17.2326  -15.9637   23.5013 C   0  0  1  0  0  0  0  0  0  0  0  0
   20.2290  -14.5622   27.2237 C   0  0  0  0  0  0  0  0  0  0  0  0
   16.4514  -16.7283   24.4521 O   0  0  0  0  0  0  0  0  0  0  0  0
   20.5639  -13.7722   24.7852 C   0  0  0  0  0  0  0  0  0  0  0  0
   20.2477  -13.8146   23.5076 C   0  0  0  0  0  0  0  0  0  0  0  0
   16.5833  -15.3789   22.4543 C   0  0  0  0  0  0  0  0  0  0  0  0
   18.8126  -14.6037   21.6008 C   0  0  1  0  0  0  0  0  0  0  0  0
   17.4636  -14.9972   21.3772 C   0  0  0  0  0  0  0  0  0  0  0  0
   16.9260  -14.9933   19.8439 C   0  0  0  0  0  0  0  0  0  0  0  0
   16.0976  -13.7788   19.6280 N   0  0  0  0  0  0  0  0  0  0  0  0
   16.5368  -12.7276   18.9553 C   0  0  0  0  0  0  0  0  0  0  0  0
   14.6341  -14.1765   19.2710 C   0  0  2  0  0  0  0  0  0  0  0  0
   14.0071  -15.0095   19.9293 O   0  0  0  0  0  0  0  0  0  0  0  0
   19.6171  -13.6682   20.9130 C   0  0  0  0  0  0  0  0  0  0  0  0
   15.9623  -12.7462   17.7890 C   0  0  2  0  0  0  0  0  0  0  0  0
   14.5351  -13.2825   17.9734 C   0  0  2  0  0  0  0  0  0  0  0  0
   16.7237  -13.5564   16.7607 C   0  0  0  0  0  0  0  0  0  0  0  0
   19.9233  -13.2104   20.0968 N   0  0  0  0  0  0  0  0  0  0  0  0
   13.2952  -14.6117   21.0805 C   0  0  0  0  0  0  0  0  0  0  0  0
   13.6596  -12.1665   18.2783 O   0  0  0  0  0  0  0  0  0  0  0  0
  1  2  1  0
  3  1  1  6
  3  4  1  0
  3  5  1  0
  2  6  1  1
  5  7  1  1
  2  8  1  0
  4  9  1  1
  8  9  1  0
  5 10  1  0
  4 11  1  0
 10 12  1  0
 11 12  1  0
 12 13  1  0
 13 14  1  0
 14 15  1  0
 14 16  1  0
 16 17  1  6
 11 18  1  1
 15 19  1  0
 16 20  1  0
 19 20  1  0
 19 21  1  6
 18 22  3  0
 17 23  1  0
 20 24  1  1
M  END
$$$$
58
     RDKit          3D

 24 27  0  0  0  0  0  0  0  0999 V2000
   20.7342  -15.2754   26.6108 C   0  0  0  0  0  0  0  0  0  0  0  0
   20.8682  -13.9757   26.4142 C   0  0  0  0  0  0  0  0  0  0  0  0
   19.5120  -15.8746   26.1244 C   0  0  0  0  0  0  0  0  0  0  0  0
   20.2393  -13.4328   25.1633 C   0  0  0  0  0  0  0  0  0  0  0  0
   18.9387  -15.4632   25.2798 C   0  0  0  0  0  0  0  0  0  0  0  0
   17.7402  -16.0440   24.5560 C   0  0  0  0  0  0  0  0  0  0  0  0
   17.3003  -15.4601   23.4080 N   0  0  0  0  0  0  0  0  0  0  0  0
   16.2224  -15.9430   22.6646 C   0  0  0  0  0  0  0  0  0  0  0  0
   19.1857  -14.1741   24.5878 C   0  0  2  0  0  0  0  0  0  0  0  0
   15.9743  -15.2252   21.4149 C   0  0  2  0  0  0  0  0  0  0  0  0
   16.6915  -14.1335   21.1318 C   0  0  1  0  0  0  0  0  0  0  0  0
   14.8436  -15.7489   20.5816 C   0  0  0  0  0  0  0  0  0  0  0  0
   17.0776  -17.0796   24.9789 O   0  0  0  0  0  0  0  0  0  0  0  0
   14.6432  -15.0173   19.3228 C   0  0  0  0  0  0  0  0  0  0  0  0
   15.4715  -13.9247   18.9788 C   0  0  1  0  0  0  0  0  0  0  0  0
   15.2700  -13.2101   17.7766 C   0  0  1  0  0  0  0  0  0  0  0  0
   14.4086  -12.0863   17.9214 N   0  0  0  0  0  0  0  0  0  0  0  0
   17.8683  -13.7534   21.8862 C   0  0  1  0  0  0  0  0  0  0  0  0
   18.7012  -12.7024   21.4933 O   0  0  0  0  0  0  0  0  0  0  0  0
   16.5354  -12.6830   17.1715 C   0  0  0  0  0  0  0  0  0  0  0  0
   16.5266  -11.9496   16.0713 O   0  0  0  0  0  0  0  0  0  0  0  0
   16.4500  -13.4159   20.0290 N   0  0  0  0  0  0  0  0  0  0  0  0
   18.2654  -14.3599   23.1787 C   0  0  2  0  0  0  0  0  0  0  0  0
   17.6613  -13.0372   17.7248 N   0  0  0  0  0  0  0  0  0  0  0  0
  1  2  1  0
  1  3  1  0
  2  4  1  0
  3  5  1  0
  5  6  1  0
  6  7  1  0
  7  8  1  0
  9  4  1  6
  5  9  1  0
 10  8  1  1
 10 11  1  0
 10 12  1  0
  6 13  2  0
 12 14  1  0
 15 14  1  1
 15 16  1  0
 16 17  1  1
 11 18  1  0
 18 19  1  1
 16 20  1  0
 20 21  2  0
 11 22  1  6
 15 22  1  0
 23  7  1  1
  9 23  1  0
 18 23  1  0
 20 24  1  0
M  END
$$$$
59
     RDKit          3D

 24 27  0  0  0  0  0  0  0  0999 V2000
   11.1561  -10.7544   24.6231 C   0  0  0  0  0  0  0  0  0  0  0  0
   12.1253  -10.3951   23.7139 C   0  0  0  0  0  0  0  0  0  0  0  0
   12.3147  -10.9758   22.5418 C   0  0  2  0  0  0  0  0  0  0  0  0
   10.8610  -12.2063   24.2967 C   0  0  0  0  0  0  0  0  0  0  0  0
   11.3229  -12.6585   23.0085 C   0  0  0  0  0  0  0  0  0  0  0  0
   12.0690  -12.1041   22.2217 C   0  0  0  0  0  0  0  0  0  0  0  0
   12.6274  -12.5441   20.9963 C   0  0  2  0  0  0  0  0  0  0  0  0
   13.2396  -11.5445   20.2602 N   0  0  0  0  0  0  0  0  0  0  0  0
   13.1660  -10.4512   21.2743 N   0  0  0  0  0  0  0  0  0  0  0  0
   12.4272  -13.8343   20.3045 C   0  0  0  0  0  0  0  0  0  0  0  0
   13.5926  -14.6345   20.4644 N   0  0  0  0  0  0  0  0  0  0  0  0
   13.5739  -15.9457   19.9569 C   0  0  0  0  0  0  0  0  0  0  0  0
   14.8177  -16.6352   20.1556 C   0  0  0  0  0  0  0  0  0  0  0  0
   15.7159  -15.7944   20.8107 C   0  0  2  0  0  0  0  0  0  0  0  0
   14.9835  -14.5048   20.9952 C   0  0  0  0  0  0  0  0  0  0  0  0
   17.1000  -15.8945   21.2457 C   0  0  1  0  0  0  0  0  0  0  0  0
   17.7472  -17.0852   20.9983 O   0  0  0  0  0  0  0  0  0  0  0  0
   19.0034  -17.1131   21.6397 C   0  0  0  0  0  0  0  0  0  0  0  0
   19.4149  -15.6990   21.7950 C   0  0  0  0  0  0  0  0  0  0  0  0
   18.1340  -14.9840   21.5187 C   0  0  2  0  0  0  0  0  0  0  0  0
   17.9623  -13.5747   21.7180 C   0  0  0  0  0  0  0  0  0  0  0  0
   18.1035  -12.7162   20.8042 C   0  0  0  0  0  0  0  0  0  0  0  0
   18.6086  -13.0552   19.4362 C   0  0  0  0  0  0  0  0  0  0  0  0
   19.7653  -13.5451   19.3235 C   0  0  0  0  0  0  0  0  0  0  0  0
  1  2  1  0
  3  2  1  1
  1  4  1  0
  4  5  1  0
  3  6  1  0
  5  6  1  0
  6  7  1  0
  7  8  1  0
  3  9  1  0
  8  9  1  0
  7 10  1  6
 10 11  1  0
 11 12  1  0
 12 13  1  0
 14 13  1  6
 11 15  1  0
 14 15  1  0
 14 16  1  0
 16 17  1  6
 17 18  1  0
 18 19  1  0
 16 20  1  0
 20 19  1  1
 20 21  1  0
 21 22  2  3
 22 23  1  0
 23 24  2  0
M  END
$$$$
6
     RDKit          3D

 11 12  0  0  0  0  0  0  0  0999 V2000
   12.2371  -10.7362   21.1563 C   0  0  0  0  0  0  0  0  0  0  0  0
   12.1569  -10.8552   22.5034 C   0  0  1  0  0  0  0  0  0  0  0  0
   12.2555   -9.6597   23.3133 C   0  0  0  0  0  0  0  0  0  0  0  0
   11.8279   -9.7930   24.6367 C   0  0  0  0  0  0  0  0  0  0  0  0
   10.9972  -11.0189   24.7953 C   0  0  0  0  0  0  0  0  0  0  0  0
   12.8486  -11.7315   20.4031 C   0  0  2  0  0  0  0  0  0  0  0  0
   11.7798  -12.0147   23.0088 C   0  0  2  0  0  0  0  0  0  0  0  0
   11.3337  -12.1460   24.0211 C   0  0  0  0  0  0  0  0  0  0  0  0
   12.1688  -13.3164   22.1389 C   0  0  0  0  0  0  0  0  0  0  0  0
   13.2607  -11.5797   19.1040 O   0  0  0  0  0  0  0  0  0  0  0  0
   12.6538  -13.0722   20.8442 C   0  0  0  0  0  0  0  0  0  0  0  0
  2  1  1  6
  2  3  1  0
  3  4  1  0
  4  5  1  0
  1  6  1  0
  2  7  1  0
  5  8  1  0
  7  8  1  1
  7  9  1  0
  6 10  1  6
  6 11  1  0
  9 11  1  0
M  END
$$$$
60
     RDKit          3D

 24 28  0  0  0  0  0  0  0  0999 V2000
   13.5718  -11.5939   19.1816 C   0  0  0  0  0  0  0  0  0  0  0  0
   14.6610  -12.2120   19.3703 C   0  0  1  0  0  0  0  0  0  0  0  0
   12.9534  -11.1365   20.0975 C   0  0  0  0  0  0  0  0  0  0  0  0
   13.2398  -11.5430   21.4185 C   0  0  0  0  0  0  0  0  0  0  0  0
   15.0422  -12.7521   20.7019 C   0  0  2  0  0  0  0  0  0  0  0  0
   14.2320  -12.2565   21.7317 C   0  0  0  0  0  0  0  0  0  0  0  0
   12.1517  -10.9854   22.6663 C   0  0  2  0  0  0  0  0  0  0  0  0
   15.5397  -12.7713   18.2676 C   0  0  0  0  0  0  0  0  0  0  0  0
   16.6992  -13.4216   18.5578 C   0  0  1  0  0  0  0  0  0  0  0  0
   15.6213  -12.4335   16.9648 C   0  0  0  0  0  0  0  0  0  0  0  0
   12.5223   -9.8121   23.2097 C   0  0  0  0  0  0  0  0  0  0  0  0
   17.6952  -13.1820   17.6531 N   0  0  0  0  0  0  0  0  0  0  0  0
   19.0023  -13.5691   17.7562 C   0  0  0  0  0  0  0  0  0  0  0  0
   14.5435  -11.8787   16.0989 N   0  0  0  0  0  0  0  0  0  0  0  0
   11.2015  -11.6753   23.0672 C   0  0  1  0  0  0  0  0  0  0  0  0
   16.8481  -12.8287   16.5488 C   0  0  0  0  0  0  0  0  0  0  0  0
   10.8710  -13.0618   22.6448 N   0  0  0  0  0  0  0  0  0  0  0  0
   17.2781  -13.3546   20.0159 C   0  0  1  0  0  0  0  0  0  0  0  0
   10.4142  -11.1979   24.0696 N   0  0  0  0  0  0  0  0  0  0  0  0
   10.8291  -10.1048   24.7079 C   0  0  0  0  0  0  0  0  0  0  0  0
   16.2883  -13.4497   21.0282 C   0  0  0  0  0  0  0  0  0  0  0  0
   19.4755  -13.4756   19.1173 C   0  0  0  0  0  0  0  0  0  0  0  0
   18.8201  -13.4369   20.1715 C   0  0  0  0  0  0  0  0  0  0  0  0
   11.8577   -9.3478   24.2809 C   0  0  0  0  0  0  0  0  0  0  0  0
  2  1  1  6
  1  3  1  0
  3  4  1  0
  2  5  1  0
  4  6  1  0
  5  6  1  1
  7  4  1  1
  2  8  1  0
  8  9  1  0
  8 10  2  0
  7 11  1  0
  9 12  1  6
 12 13  1  0
 10 14  1  0
  7 15  1  0
 10 16  1  0
 12 16  1  0
 15 17  1  1
  9 18  1  0
 15 19  1  0
 19 20  1  0
  5 21  1  0
 18 21  1  1
 13 22  1  0
 18 23  1  0
 22 23  1  0
 11 24  1  0
 20 24  1  0
M  END
$$$$
61
     RDKit          3D

 24 27  0  0  0  0  0  0  0  0999 V2000
   12.2371  -10.7362   21.1563 C   0  0  0  0  0  0  0  0  0  0  0  0
   12.1569  -10.8552   22.5034 C   0  0  1  0  0  0  0  0  0  0  0  0
   12.2555   -9.6597   23.3133 C   0  0  0  0  0  0  0  0  0  0  0  0
   11.8279   -9.7930   24.6367 C   0  0  0  0  0  0  0  0  0  0  0  0
   10.9972  -11.0189   24.7953 C   0  0  0  0  0  0  0  0  0  0  0  0
   11.1899  -12.0022   23.7940 C   0  0  0  0  0  0  0  0  0  0  0  0
   11.6809  -11.8966   22.6957 C   0  0  0  0  0  0  0  0  0  0  0  0
   11.8192  -12.7147   21.6905 N   0  0  0  0  0  0  0  0  0  0  0  0
   12.3363  -11.9908   20.6794 N   0  0  0  0  0  0  0  0  0  0  0  0
   12.1988  -14.1443   21.8618 C   0  0  0  0  0  0  0  0  0  0  0  0
   13.4742  -14.4824   21.3278 C   0  0  1  0  0  0  0  0  0  0  0  0
   13.6973  -15.7678   21.0174 C   0  0  0  0  0  0  0  0  0  0  0  0
   13.9382  -13.7235   20.1967 C   0  0  0  0  0  0  0  0  0  0  0  0
   15.1072  -14.2564   19.5965 C   0  0  0  0  0  0  0  0  0  0  0  0
   13.2274  -12.5052   19.6679 C   0  0  0  0  0  0  0  0  0  0  0  0
   15.1082  -15.6780   20.1898 C   0  0  0  0  0  0  0  0  0  0  0  0
   16.0541  -13.7662   18.6796 C   0  0  2  0  0  0  0  0  0  0  0  0
   17.3601  -13.4957   19.2096 C   0  0  0  0  0  0  0  0  0  0  0  0
   15.5045  -12.5522   18.0335 C   0  0  0  0  0  0  0  0  0  0  0  0
   17.4963  -12.9804   20.5015 C   0  0  0  0  0  0  0  0  0  0  0  0
   18.3633  -13.7069   21.4655 C   0  0  0  0  0  0  0  0  0  0  0  0
   18.3159  -13.8492   22.7349 O   0  0  0  0  0  0  0  0  0  0  0  0
   19.5840  -14.3379   20.9460 N   0  0  0  0  0  0  0  0  0  0  0  0
   20.4943  -14.8040   21.8041 C   0  0  0  0  0  0  0  0  0  0  0  0
  2  1  1  6
  2  3  1  0
  3  4  1  0
  4  5  1  0
  5  6  1  0
  2  7  1  0
  6  7  1  0
  7  8  1  0
  1  9  1  0
  8  9  1  0
  8 10  1  0
 11 10  1  6
 11 12  1  0
 11 13  1  0
 13 14  1  0
  9 15  1  0
 13 15  1  0
 12 16  1  0
 14 16  1  0
 14 17  1  0
 17 18  1  0
 17 19  1  1
 18 20  1  0
 20 21  1  0
 21 22  2  0
 21 23  1  0
 23 24  1  0
M  END
$$$$
62
     RDKit          3D

 24 28  0  0  0  0  0  0  0  0999 V2000
   12.2371  -10.7362   21.1563 C   0  0  0  0  0  0  0  0  0  0  0  0
   12.1569  -10.8552   22.5034 C   0  0  1  0  0  0  0  0  0  0  0  0
   12.2555   -9.6597   23.3133 C   0  0  0  0  0  0  0  0  0  0  0  0
   11.8279   -9.7930   24.6367 C   0  0  0  0  0  0  0  0  0  0  0  0
   10.9972  -11.0189   24.7953 C   0  0  0  0  0  0  0  0  0  0  0  0
   11.1899  -12.0022   23.7940 C   0  0  0  0  0  0  0  0  0  0  0  0
   11.6809  -11.8966   22.6957 C   0  0  0  0  0  0  0  0  0  0  0  0
   11.8192  -12.7147   21.6905 N   0  0  0  0  0  0  0  0  0  0  0  0
   12.3363  -11.9908   20.6794 N   0  0  0  0  0  0  0  0  0  0  0  0
   12.1988  -14.1443   21.8618 C   0  0  0  0  0  0  0  0  0  0  0  0
   13.4742  -14.4824   21.3278 C   0  0  1  0  0  0  0  0  0  0  0  0
   13.6973  -15.7678   21.0174 C   0  0  0  0  0  0  0  0  0  0  0  0
   13.9382  -13.7235   20.1967 C   0  0  0  0  0  0  0  0  0  0  0  0
   15.1072  -14.2564   19.5965 C   0  0  0  0  0  0  0  0  0  0  0  0
   13.2274  -12.5052   19.6679 C   0  0  0  0  0  0  0  0  0  0  0  0
   15.1082  -15.6780   20.1898 C   0  0  0  0  0  0  0  0  0  0  0  0
   16.0541  -13.7662   18.6796 C   0  0  0  0  0  0  0  0  0  0  0  0
   17.3601  -13.4957   19.2096 C   0  0  0  0  0  0  0  0  0  0  0  0
   18.4381  -13.3576   18.4455 C   0  0  0  0  0  0  0  0  0  0  0  0
   17.5323  -13.3578   20.6737 C   0  0  1  0  0  0  0  0  0  0  0  0
   16.5211  -13.4409   21.6709 C   0  0  0  0  0  0  0  0  0  0  0  0
   18.9751  -13.2701   20.9808 C   0  0  0  0  0  0  0  0  0  0  0  0
   20.0289  -13.1850   20.1303 C   0  0  0  0  0  0  0  0  0  0  0  0
   19.7392  -13.2268   18.8357 C   0  0  0  0  0  0  0  0  0  0  0  0
  2  1  1  6
  2  3  1  0
  3  4  1  0
  4  5  1  0
  5  6  1  0
  2  7  1  0
  6  7  1  0
  7  8  1  0
  1  9  1  0
  8  9  1  0
  8 10  1  0
 11 10  1  6
 11 12  1  0
 11 13  1  0
 13 14  1  0
  9 15  1  0
 13 15  1  0
 12 16  1  0
 14 16  1  0
 14 17  1  0
 17 18  1  0
 18 19  1  0
 18 20  1  0
 20 21  1  1
 20 22  1  0
 22 23  1  0
 19 24  1  0
 23 24  1  0
M  END
$$$$
63
     RDKit          3D

 24 27  0  0  0  0  0  0  0  0999 V2000
   11.1561  -10.7544   24.6231 C   0  0  0  0  0  0  0  0  0  0  0  0
   12.1253  -10.3951   23.7139 C   0  0  0  0  0  0  0  0  0  0  0  0
   12.3147  -10.9758   22.5418 C   0  0  2  0  0  0  0  0  0  0  0  0
   10.8610  -12.2063   24.2967 C   0  0  0  0  0  0  0  0  0  0  0  0
   11.3229  -12.6585   23.0085 C   0  0  0  0  0  0  0  0  0  0  0  0
   12.0690  -12.1041   22.2217 C   0  0  0  0  0  0  0  0  0  0  0  0
   12.6274  -12.5441   20.9963 C   0  0  2  0  0  0  0  0  0  0  0  0
   13.2396  -11.5445   20.2602 N   0  0  0  0  0  0  0  0  0  0  0  0
   13.1660  -10.4512   21.2743 N   0  0  0  0  0  0  0  0  0  0  0  0
   12.4272  -13.8343   20.3045 C   0  0  0  0  0  0  0  0  0  0  0  0
   13.5926  -14.6345   20.4644 N   0  0  0  0  0  0  0  0  0  0  0  0
   13.5739  -15.9457   19.9569 C   0  0  0  0  0  0  0  0  0  0  0  0
   14.8177  -16.6352   20.1556 C   0  0  0  0  0  0  0  0  0  0  0  0
   15.7159  -15.7944   20.8107 C   0  0  0  0  0  0  0  0  0  0  0  0
   14.9208  -14.4936   21.0164 C   0  0  1  0  0  0  0  0  0  0  0  0
   17.0867  -15.8690   21.2630 C   0  0  1  0  0  0  0  0  0  0  0  0
   17.7398  -17.0479   21.0419 O   0  0  0  0  0  0  0  0  0  0  0  0
   17.8312  -14.6635   21.1455 C   0  0  1  0  0  0  0  0  0  0  0  0
   17.2151  -13.4725   21.4977 C   0  0  0  0  0  0  0  0  0  0  0  0
   19.3736  -14.8609   21.4905 C   0  0  0  0  0  0  0  0  0  0  0  0
   15.7999  -13.3756   21.2138 C   0  0  0  0  0  0  0  0  0  0  0  0
   16.9929  -18.1695   21.5395 C   0  0  0  0  0  0  0  0  0  0  0  0
   20.1043  -14.1472   20.5894 C   0  0  0  0  0  0  0  0  0  0  0  0
   19.6578  -14.0652   19.1911 C   0  0  0  0  0  0  0  0  0  0  0  0
  1  2  1  0
  3  2  1  1
  1  4  1  0
  4  5  1  0
  3  6  1  0
  5  6  1  0
  6  7  1  0
  7  8  1  0
  3  9  1  0
  8  9  1  0
  7 10  1  6
 10 11  1  0
 11 12  1  0
 12 13  1  0
 13 14  1  0
 11 15  1  0
 14 15  1  0
 14 16  1  0
 16 17  1  6
 16 18  1  0
 18 19  1  0
 18 20  1  1
 15 21  1  6
 19 21  1  0
 17 22  1  0
 20 23  1  0
 23 24  1  0
M  END
$$$$
64
     RDKit          3D

 25 27  0  0  0  0  0  0  0  0999 V2000
   13.5718  -11.5939   19.1816 C   0  0  0  0  0  0  0  0  0  0  0  0
   14.6610  -12.2120   19.3703 C   0  0  0  0  0  0  0  0  0  0  0  0
   12.9534  -11.1365   20.0975 C   0  0  0  0  0  0  0  0  0  0  0  0
   13.2398  -11.5430   21.4185 C   0  0  1  0  0  0  0  0  0  0  0  0
   15.0422  -12.7521   20.7019 C   0  0  2  0  0  0  0  0  0  0  0  0
   14.2320  -12.2565   21.7317 C   0  0  0  0  0  0  0  0  0  0  0  0
   16.2440  -13.5935   21.0205 C   0  0  0  0  0  0  0  0  0  0  0  0
   16.0695  -14.5368   21.9637 C   0  0  0  0  0  0  0  0  0  0  0  0
   17.4492  -13.3566   20.3687 C   0  0  0  0  0  0  0  0  0  0  0  0
   17.2574  -15.3202   22.2145 C   0  0  1  0  0  0  0  0  0  0  0  0
   18.4751  -15.0947   21.7154 C   0  0  0  0  0  0  0  0  0  0  0  0
   12.2965  -10.9716   22.5805 C   0  0  0  0  0  0  0  0  0  0  0  0
   18.5828  -14.0634   20.7421 C   0  0  0  0  0  0  0  0  0  0  0  0
   20.0375  -13.7591   20.0636 Cl  0  0  0  0  0  0  0  0  0  0  0  0
   17.0596  -16.5280   23.3914 C   0  0  0  0  0  0  0  0  0  0  0  0
   17.7514  -16.2925   24.5529 N   0  0  0  0  0  0  0  0  0  0  0  0
   16.4812  -17.4980   23.1609 O   0  0  0  0  0  0  0  0  0  0  0  0
   11.9834  -11.4272   23.5943 C   0  0  0  0  0  0  0  0  0  0  0  0
   17.6400  -17.2542   25.5730 C   0  0  0  0  0  0  0  0  0  0  0  0
   18.7898  -15.2966   24.7343 C   0  0  0  0  0  0  0  0  0  0  0  0
   11.1785  -11.0012   24.4682 C   0  0  0  0  0  0  0  0  0  0  0  0
   18.4039  -16.7293   26.7312 C   0  0  0  0  0  0  0  0  0  0  0  0
   19.2011  -15.5548   26.1172 C   0  0  2  0  0  0  0  0  0  0  0  0
   20.1835  -14.7062   26.6898 C   0  0  0  0  0  0  0  0  0  0  0  0
   20.6098  -13.5730   26.0536 C   0  0  0  0  0  0  0  0  0  0  0  0
  1  2  1  0
  1  3  1  0
  3  4  1  0
  2  5  1  0
  4  6  1  0
  5  6  1  0
  5  7  1  1
  7  8  1  0
  7  9  1  0
  8 10  1  0
 10 11  1  0
  4 12  1  1
  9 13  1  0
 11 13  1  0
 13 14  1  0
 10 15  1  1
 15 16  1  0
 15 17  2  0
 12 18  1  0
 16 19  1  0
 16 20  1  0
 18 21  1  0
 19 22  1  0
 20 23  1  0
 22 23  1  0
 23 24  1  1
 24 25  1  0
M  END
$$$$
65
     RDKit          3D

 25 30  0  0  0  0  0  0  0  0999 V2000
   12.2371  -10.7362   21.1563 C   0  0  0  0  0  0  0  0  0  0  0  0
   12.1569  -10.8552   22.5034 C   0  0  1  0  0  0  0  0  0  0  0  0
   12.2555   -9.6597   23.3133 C   0  0  0  0  0  0  0  0  0  0  0  0
   11.8279   -9.7930   24.6367 C   0  0  0  0  0  0  0  0  0  0  0  0
   10.9972  -11.0189   24.7953 C   0  0  0  0  0  0  0  0  0  0  0  0
   11.1899  -12.0022   23.7940 C   0  0  0  0  0  0  0  0  0  0  0  0
   11.6809  -11.8966   22.6957 C   0  0  0  0  0  0  0  0  0  0  0  0
   11.8192  -12.7147   21.6905 N   0  0  0  0  0  0  0  0  0  0  0  0
   12.3363  -11.9908   20.6794 N   0  0  0  0  0  0  0  0  0  0  0  0
   12.1988  -14.1443   21.8618 C   0  0  0  0  0  0  0  0  0  0  0  0
   13.4742  -14.4824   21.3278 C   0  0  1  0  0  0  0  0  0  0  0  0
   13.6973  -15.7678   21.0174 C   0  0  0  0  0  0  0  0  0  0  0  0
   13.9382  -13.7235   20.1967 C   0  0  2  0  0  0  0  0  0  0  0  0
   15.1072  -14.2564   19.5965 C   0  0  0  0  0  0  0  0  0  0  0  0
   14.9931  -15.8087   20.2549 N   0  0  0  0  0  0  0  0  0  0  0  0
   16.2903  -15.8468   20.8577 C   0  0  0  0  0  0  0  0  0  0  0  0
   16.1349  -14.0320   18.8469 C   0  0  0  0  0  0  0  0  0  0  0  0
   17.4485  -14.0660   19.5748 N   0  0  0  0  0  0  0  0  0  0  0  0
   13.5766  -12.2938   19.9589 C   0  0  0  0  0  0  0  0  0  0  0  0
   17.4733  -15.2153   20.4370 C   0  0  1  0  0  0  0  0  0  0  0  0
   18.7421  -15.4134   21.0949 C   0  0  0  0  0  0  0  0  0  0  0  0
   18.4091  -13.1488   19.5265 C   0  0  0  0  0  0  0  0  0  0  0  0
   18.3069  -12.2365   18.7252 O   0  0  0  0  0  0  0  0  0  0  0  0
   19.7803  -14.5088   20.9391 C   0  0  0  0  0  0  0  0  0  0  0  0
   19.6135  -13.3474   20.1883 C   0  0  0  0  0  0  0  0  0  0  0  0
  2  1  1  6
  2  3  1  0
  3  4  1  0
  4  5  1  0
  5  6  1  0
  2  7  1  0
  6  7  1  0
  7  8  1  0
  1  9  1  0
  8  9  1  0
  8 10  1  0
 11 10  1  6
 11 12  1  0
 11 13  1  0
 13 14  1  0
 12 15  1  0
 14 15  1  0
 15 16  1  0
 14 17  1  0
 17 18  1  0
  9 19  1  0
 13 19  1  1
 20 16  1  1
 18 20  1  0
 20 21  1  0
 18 22  1  0
 22 23  2  0
 21 24  1  0
 22 25  1  0
 24 25  1  0
M  END
$$$$
66
     RDKit          3D

 25 28  0  0  0  0  0  0  0  0999 V2000
   18.8474  -15.2292   25.3798 C   0  0  0  0  0  0  0  0  0  0  0  0
   19.8636  -14.6145   25.7915 C   0  0  2  0  0  0  0  0  0  0  0  0
   18.3886  -15.2762   24.0938 C   0  0  1  0  0  0  0  0  0  0  0  0
   19.1649  -14.6143   23.1188 C   0  0  2  0  0  0  0  0  0  0  0  0
   17.2326  -15.9637   23.5013 C   0  0  1  0  0  0  0  0  0  0  0  0
   20.2290  -14.5622   27.2237 C   0  0  0  0  0  0  0  0  0  0  0  0
   16.4514  -16.7283   24.4521 O   0  0  0  0  0  0  0  0  0  0  0  0
   20.5639  -13.7722   24.7852 C   0  0  0  0  0  0  0  0  0  0  0  0
   20.2477  -13.8146   23.5076 C   0  0  0  0  0  0  0  0  0  0  0  0
   16.5833  -15.3789   22.4543 C   0  0  0  0  0  0  0  0  0  0  0  0
   18.8126  -14.6037   21.6008 C   0  0  1  0  0  0  0  0  0  0  0  0
   17.4636  -14.9972   21.3772 C   0  0  0  0  0  0  0  0  0  0  0  0
   16.9260  -14.9933   19.8439 C   0  0  0  0  0  0  0  0  0  0  0  0
   16.0976  -13.7788   19.6280 N   0  0  0  0  0  0  0  0  0  0  0  0
   16.5368  -12.7276   18.9553 C   0  0  0  0  0  0  0  0  0  0  0  0
   14.6341  -14.1765   19.2710 C   0  0  2  0  0  0  0  0  0  0  0  0
   14.0071  -15.0095   19.9293 O   0  0  0  0  0  0  0  0  0  0  0  0
   19.6171  -13.6682   20.9130 C   0  0  0  0  0  0  0  0  0  0  0  0
   15.9623  -12.7462   17.7890 C   0  0  0  0  0  0  0  0  0  0  0  0
   20.7343  -13.2307   21.8752 C   0  0  0  0  0  0  0  0  0  0  0  0
   14.5063  -13.2894   17.9789 C   0  0  2  0  0  0  0  0  0  0  0  0
   12.8020  -14.5640   20.5728 C   0  0  0  0  0  0  0  0  0  0  0  0
   13.7351  -12.1013   18.3503 O   0  0  0  0  0  0  0  0  0  0  0  0
   12.8464  -14.6842   22.0256 C   0  0  0  0  0  0  0  0  0  0  0  0
   13.5670  -13.4781   22.5033 O   0  0  0  0  0  0  0  0  0  0  0  0
  1  2  1  0
  3  1  1  6
  3  4  1  0
  3  5  1  0
  2  6  1  1
  5  7  1  1
  2  8  1  0
  4  9  1  1
  8  9  1  0
  5 10  1  0
  4 11  1  0
 10 12  1  0
 11 12  1  0
 12 13  1  0
 13 14  1  0
 14 15  1  0
 14 16  1  0
 16 17  1  6
 11 18  1  1
 15 19  1  0
  9 20  1  0
 18 20  1  0
 16 21  1  0
 19 21  1  0
 17 22  1  0
 21 23  1  1
 22 24  1  0
 24 25  1  0
M  END
$$$$
67
     RDKit          3D

 25 28  0  0  0  0  0  0  0  0999 V2000
   11.9009  -11.1573   21.8386 C   0  0  0  0  0  0  0  0  0  0  0  0
   11.7800  -11.2356   23.0061 C   0  0  2  0  0  0  0  0  0  0  0  0
   12.9939  -11.6378   21.2597 C   0  0  1  0  0  0  0  0  0  0  0  0
   11.0682  -10.4274   23.9300 C   0  0  0  0  0  0  0  0  0  0  0  0
   12.6454  -12.3267   23.4311 O   0  0  0  0  0  0  0  0  0  0  0  0
   10.5889  -10.8714   25.0372 O   0  0  0  0  0  0  0  0  0  0  0  0
   13.3359  -12.6270   22.2792 C   0  0  2  0  0  0  0  0  0  0  0  0
   13.6519  -11.5884   20.0342 O   0  0  0  0  0  0  0  0  0  0  0  0
   14.3693  -13.5271   22.0618 N   0  0  0  0  0  0  0  0  0  0  0  0
   15.0710  -13.5293   21.0666 C   0  0  2  0  0  0  0  0  0  0  0  0
   16.3042  -14.2317   20.9631 C   0  0  0  0  0  0  0  0  0  0  0  0
   17.4561  -13.7463   20.4133 C   0  0  0  0  0  0  0  0  0  0  0  0
   16.5164  -15.6015   21.4928 C   0  0  0  0  0  0  0  0  0  0  0  0
   17.7411  -16.2471   21.5210 C   0  0  2  0  0  0  0  0  0  0  0  0
   17.9371  -17.5632   22.0630 C   0  0  1  0  0  0  0  0  0  0  0  0
   17.3137  -17.6842   23.3089 O   0  0  0  0  0  0  0  0  0  0  0  0
   14.8138  -12.6236   19.9640 C   0  0  0  0  0  0  0  0  0  0  0  0
   17.4737  -18.6980   21.1331 C   0  0  0  0  0  0  0  0  0  0  0  0
   18.8566  -15.4790   21.0771 C   0  0  2  0  0  0  0  0  0  0  0  0
   19.3961  -17.9737   22.2122 C   0  0  0  0  0  0  0  0  0  0  0  0
   17.7726  -17.4041   24.4208 C   0  0  0  0  0  0  0  0  0  0  0  0
   18.6204  -14.3529   20.4918 C   0  0  2  0  0  0  0  0  0  0  0  0
   19.8235  -13.5655   19.9257 C   0  0  0  0  0  0  0  0  0  0  0  0
   20.1047  -16.0541   21.1977 O   0  0  0  0  0  0  0  0  0  0  0  0
   20.3809  -17.2672   21.5238 C   0  0  0  0  0  0  0  0  0  0  0  0
  1  2  1  0
  3  1  1  6
  2  4  1  1
  2  5  1  0
  4  6  1  0
  3  7  1  0
  5  7  1  0
  3  8  1  0
  7  9  1  1
  9 10  1  0
 10 11  1  1
 11 12  1  0
 11 13  1  0
 14 13  1  1
 14 15  1  0
 15 16  1  0
  8 17  1  0
 10 17  1  0
 15 18  1  6
 14 19  1  0
 15 20  1  0
 16 21  1  0
 12 22  1  0
 19 22  1  0
 22 23  1  1
 19 24  1  6
 20 25  1  0
 24 25  1  0
M  END
$$$$
68
     RDKit          3D

 25 29  0  0  0  0  0  0  0  0999 V2000
   12.2371  -10.7362   21.1563 C   0  0  0  0  0  0  0  0  0  0  0  0
   12.1569  -10.8552   22.5034 C   0  0  1  0  0  0  0  0  0  0  0  0
   12.2555   -9.6597   23.3133 C   0  0  0  0  0  0  0  0  0  0  0  0
   11.8279   -9.7930   24.6367 C   0  0  0  0  0  0  0  0  0  0  0  0
   10.9972  -11.0189   24.7953 C   0  0  0  0  0  0  0  0  0  0  0  0
   11.1899  -12.0022   23.7940 C   0  0  0  0  0  0  0  0  0  0  0  0
   11.6809  -11.8966   22.6957 C   0  0  0  0  0  0  0  0  0  0  0  0
   11.8192  -12.7147   21.6905 N   0  0  0  0  0  0  0  0  0  0  0  0
   12.3363  -11.9908   20.6794 N   0  0  0  0  0  0  0  0  0  0  0  0
   12.1988  -14.1443   21.8618 C   0  0  0  0  0  0  0  0  0  0  0  0
   13.4742  -14.4824   21.3278 C   0  0  1  0  0  0  0  0  0  0  0  0
   13.6973  -15.7678   21.0174 C   0  0  0  0  0  0  0  0  0  0  0  0
   13.9382  -13.7235   20.1967 C   0  0  0  0  0  0  0  0  0  0  0  0
   15.1072  -14.2564   19.5965 C   0  0  0  0  0  0  0  0  0  0  0  0
   13.2274  -12.5052   19.6679 C   0  0  0  0  0  0  0  0  0  0  0  0
   15.1082  -15.6780   20.1898 C   0  0  0  0  0  0  0  0  0  0  0  0
   16.0541  -13.7662   18.6796 C   0  0  0  0  0  0  0  0  0  0  0  0
   17.3601  -13.4957   19.2096 C   0  0  0  0  0  0  0  0  0  0  0  0
   18.4381  -13.3576   18.4455 C   0  0  0  0  0  0  0  0  0  0  0  0
   17.5323  -13.3578   20.6737 C   0  0  1  0  0  0  0  0  0  0  0  0
   16.5211  -13.4409   21.6709 C   0  0  0  0  0  0  0  0  0  0  0  0
   18.9751  -13.2701   20.9808 C   0  0  0  0  0  0  0  0  0  0  0  0
   20.0289  -13.1850   20.1303 C   0  0  1  0  0  0  0  0  0  0  0  0
   21.3063  -13.0953   20.5813 F   0  0  0  0  0  0  0  0  0  0  0  0
   19.7399  -13.2657   18.7792 C   0  0  0  0  0  0  0  0  0  0  0  0
  2  1  1  6
  2  3  1  0
  3  4  1  0
  4  5  1  0
  5  6  1  0
  2  7  1  0
  6  7  1  0
  7  8  1  0
  1  9  1  0
  8  9  1  0
  8 10  1  0
 11 10  1  6
 11 12  1  0
 11 13  1  0
 13 14  1  0
  9 15  1  0
 13 15  1  0
 12 16  1  0
 14 16  1  0
 14 17  1  0
 17 18  1  0
 18 19  1  0
 18 20  1  0
 20 21  1  1
 20 22  1  0
 22 23  1  0
 23 24  1  1
 19 25  1  0
 23 25  1  0
M  END
$$$$
69
     RDKit          3D

 25 28  0  0  0  0  0  0  0  0999 V2000
   11.9009  -11.1573   21.8386 C   0  0  0  0  0  0  0  0  0  0  0  0
   11.7800  -11.2356   23.0061 C   0  0  2  0  0  0  0  0  0  0  0  0
   12.9939  -11.6378   21.2597 C   0  0  1  0  0  0  0  0  0  0  0  0
   11.0682  -10.4274   23.9300 C   0  0  0  0  0  0  0  0  0  0  0  0
   12.6454  -12.3267   23.4311 O   0  0  0  0  0  0  0  0  0  0  0  0
   10.5889  -10.8714   25.0372 O   0  0  0  0  0  0  0  0  0  0  0  0
   13.3359  -12.6270   22.2792 C   0  0  2  0  0  0  0  0  0  0  0  0
   13.6519  -11.5884   20.0342 O   0  0  0  0  0  0  0  0  0  0  0  0
   14.3693  -13.5271   22.0618 N   0  0  0  0  0  0  0  0  0  0  0  0
   15.0710  -13.5293   21.0666 C   0  0  2  0  0  0  0  0  0  0  0  0
   16.3042  -14.2317   20.9631 C   0  0  0  0  0  0  0  0  0  0  0  0
   17.4561  -13.7463   20.4133 C   0  0  0  0  0  0  0  0  0  0  0  0
   16.5164  -15.6015   21.4928 C   0  0  0  0  0  0  0  0  0  0  0  0
   17.7411  -16.2471   21.5210 C   0  0  2  0  0  0  0  0  0  0  0  0
   17.9371  -17.5632   22.0630 C   0  0  1  0  0  0  0  0  0  0  0  0
   17.3137  -17.6842   23.3089 O   0  0  0  0  0  0  0  0  0  0  0  0
   14.8138  -12.6236   19.9640 C   0  0  0  0  0  0  0  0  0  0  0  0
   17.4737  -18.6980   21.1331 C   0  0  0  0  0  0  0  0  0  0  0  0
   18.8566  -15.4790   21.0771 C   0  0  1  0  0  0  0  0  0  0  0  0
   19.3961  -17.9737   22.2122 C   0  0  0  0  0  0  0  0  0  0  0  0
   17.7726  -17.4041   24.4208 C   0  0  0  0  0  0  0  0  0  0  0  0
   18.6204  -14.3529   20.4918 C   0  0  2  0  0  0  0  0  0  0  0  0
   20.0927  -15.9515   21.4528 N   0  0  0  0  0  0  0  0  0  0  0  0
   19.8951  -13.4534   19.8350 C   0  0  0  0  0  0  0  0  0  0  0  0
   20.3690  -17.1569   21.8792 C   0  0  0  0  0  0  0  0  0  0  0  0
  1  2  1  0
  3  1  1  6
  2  4  1  1
  2  5  1  0
  4  6  1  0
  3  7  1  0
  5  7  1  0
  3  8  1  0
  7  9  1  1
  9 10  1  0
 10 11  1  1
 11 12  1  0
 11 13  1  0
 14 13  1  1
 14 15  1  0
 15 16  1  0
  8 17  1  0
 10 17  1  0
 15 18  1  6
 14 19  1  0
 15 20  1  0
 16 21  1  0
 12 22  1  0
 19 22  1  0
 19 23  1  1
 22 24  1  1
 20 25  1  0
 23 25  1  0
M  END
$$$$
7
     RDKit          3D

 12 13  0  0  0  0  0  0  0  0999 V2000
   11.1858  -10.9447   23.7365 C   0  0  1  0  0  0  0  0  0  0  0  0
   11.5109  -12.0519   23.0248 C   0  0  0  0  0  0  0  0  0  0  0  0
   12.5106  -12.1126   22.0603 C   0  0  1  0  0  0  0  0  0  0  0  0
   12.8578  -13.2832   21.3030 C   0  0  2  0  0  0  0  0  0  0  0  0
   10.4636  -10.9961   24.9738 N   0  0  0  0  0  0  0  0  0  0  0  0
   12.8826  -10.8361   21.4476 C   0  0  2  0  0  0  0  0  0  0  0  0
   11.7834   -9.6633   23.4336 C   0  0  0  0  0  0  0  0  0  0  0  0
   13.7632  -10.9223   20.3670 N   0  0  0  0  0  0  0  0  0  0  0  0
   12.4378  -14.5693   21.8933 N   0  0  0  0  0  0  0  0  0  0  0  0
   12.6885   -9.6796   22.2333 C   0  0  0  0  0  0  0  0  0  0  0  0
   13.6655  -13.3084   20.2985 C   0  0  0  0  0  0  0  0  0  0  0  0
   14.1207  -12.0625   19.8314 C   0  0  0  0  0  0  0  0  0  0  0  0
  1  2  1  0
  3  2  1  6
  3  4  1  0
  1  5  1  1
  3  6  1  0
  1  7  1  0
  6  8  1  0
  4  9  1  1
  6 10  1  1
  7 10  1  0
  4 11  1  0
  8 12  1  0
 11 12  1  0
M  END
$$$$
70
     RDKit          3D

 25 28  0  0  0  0  0  0  0  0999 V2000
   20.7342  -15.2754   26.6108 C   0  0  0  0  0  0  0  0  0  0  0  0
   20.8682  -13.9757   26.4142 C   0  0  0  0  0  0  0  0  0  0  0  0
   19.5120  -15.8746   26.1244 C   0  0  0  0  0  0  0  0  0  0  0  0
   20.2393  -13.4328   25.1633 C   0  0  0  0  0  0  0  0  0  0  0  0
   18.9387  -15.4632   25.2798 C   0  0  0  0  0  0  0  0  0  0  0  0
   17.7402  -16.0440   24.5560 C   0  0  0  0  0  0  0  0  0  0  0  0
   17.3003  -15.4601   23.4080 N   0  0  0  0  0  0  0  0  0  0  0  0
   16.2224  -15.9430   22.6646 C   0  0  0  0  0  0  0  0  0  0  0  0
   19.1857  -14.1741   24.5878 C   0  0  2  0  0  0  0  0  0  0  0  0
   15.9743  -15.2252   21.4149 C   0  0  2  0  0  0  0  0  0  0  0  0
   16.6915  -14.1335   21.1318 C   0  0  1  0  0  0  0  0  0  0  0  0
   14.8436  -15.7489   20.5816 C   0  0  0  0  0  0  0  0  0  0  0  0
   17.0776  -17.0796   24.9789 O   0  0  0  0  0  0  0  0  0  0  0  0
   14.6432  -15.0173   19.3228 C   0  0  0  0  0  0  0  0  0  0  0  0
   15.4715  -13.9247   18.9788 C   0  0  1  0  0  0  0  0  0  0  0  0
   15.2700  -13.2101   17.7766 C   0  0  1  0  0  0  0  0  0  0  0  0
   14.4086  -12.0863   17.9214 N   0  0  0  0  0  0  0  0  0  0  0  0
   17.8683  -13.7534   21.8862 C   0  0  1  0  0  0  0  0  0  0  0  0
   18.7012  -12.7024   21.4933 O   0  0  0  0  0  0  0  0  0  0  0  0
   16.5354  -12.6830   17.1715 C   0  0  0  0  0  0  0  0  0  0  0  0
   16.4401  -13.4114   19.8764 C   0  0  0  0  0  0  0  0  0  0  0  0
   18.2536  -14.3672   23.1668 C   0  0  2  0  0  0  0  0  0  0  0  0
   13.5489  -12.0121   18.8544 C   0  0  0  0  0  0  0  0  0  0  0  0
   13.0390  -10.6661   19.2851 N   0  0  0  0  0  0  0  0  0  0  0  0
   13.0433  -13.0361   19.6227 O   0  0  0  0  0  0  0  0  0  0  0  0
  1  2  1  0
  1  3  1  0
  2  4  1  0
  3  5  1  0
  5  6  1  0
  6  7  1  0
  7  8  1  0
  9  4  1  6
  5  9  1  0
 10  8  1  1
 10 11  1  0
 10 12  1  0
  6 13  2  0
 12 14  1  0
 15 14  1  1
 15 16  1  0
 16 17  1  0
 11 18  1  0
 18 19  1  1
 16 20  1  1
 11 21  1  6
 15 21  1  0
 22  7  1  1
  9 22  1  0
 18 22  1  0
 17 23  1  0
 23 24  1  0
 23 25  2  0
M  END
$$$$
71
     RDKit          3D

 26 30  0  0  0  0  0  0  0  0999 V2000
   12.2371  -10.7362   21.1563 C   0  0  0  0  0  0  0  0  0  0  0  0
   12.1569  -10.8552   22.5034 C   0  0  1  0  0  0  0  0  0  0  0  0
   12.2555   -9.6597   23.3133 C   0  0  0  0  0  0  0  0  0  0  0  0
   11.8279   -9.7930   24.6367 C   0  0  0  0  0  0  0  0  0  0  0  0
   10.9972  -11.0189   24.7953 C   0  0  0  0  0  0  0  0  0  0  0  0
   11.1899  -12.0022   23.7940 C   0  0  0  0  0  0  0  0  0  0  0  0
   11.6809  -11.8966   22.6957 C   0  0  0  0  0  0  0  0  0  0  0  0
   11.8192  -12.7147   21.6905 N   0  0  0  0  0  0  0  0  0  0  0  0
   12.3363  -11.9908   20.6794 N   0  0  0  0  0  0  0  0  0  0  0  0
   12.1988  -14.1443   21.8618 C   0  0  0  0  0  0  0  0  0  0  0  0
   13.4742  -14.4824   21.3278 C   0  0  1  0  0  0  0  0  0  0  0  0
   13.6973  -15.7678   21.0174 C   0  0  0  0  0  0  0  0  0  0  0  0
   13.9382  -13.7235   20.1967 C   0  0  0  0  0  0  0  0  0  0  0  0
   15.1072  -14.2564   19.5965 C   0  0  0  0  0  0  0  0  0  0  0  0
   13.2274  -12.5052   19.6679 C   0  0  0  0  0  0  0  0  0  0  0  0
   15.1082  -15.6780   20.1898 C   0  0  0  0  0  0  0  0  0  0  0  0
   16.0541  -13.7662   18.6796 C   0  0  2  0  0  0  0  0  0  0  0  0
   17.3601  -13.4957   19.2096 C   0  0  1  0  0  0  0  0  0  0  0  0
   15.5045  -12.5522   18.0335 C   0  0  0  0  0  0  0  0  0  0  0  0
   17.4963  -12.9804   20.5015 C   0  0  0  0  0  0  0  0  0  0  0  0
   18.3633  -13.7069   21.4655 C   0  0  0  0  0  0  0  0  0  0  0  0
   18.3159  -13.8492   22.7349 O   0  0  0  0  0  0  0  0  0  0  0  0
   19.3721  -14.6049   20.8418 C   0  0  2  0  0  0  0  0  0  0  0  0
   20.3958  -15.0298   21.7402 O   0  0  0  0  0  0  0  0  0  0  0  0
   19.7401  -14.4963   19.5017 C   0  0  0  0  0  0  0  0  0  0  0  0
   18.7702  -13.7700   18.8846 C   0  0  0  0  0  0  0  0  0  0  0  0
  2  1  1  6
  2  3  1  0
  3  4  1  0
  4  5  1  0
  5  6  1  0
  2  7  1  0
  6  7  1  0
  7  8  1  0
  1  9  1  0
  8  9  1  0
  8 10  1  0
 11 10  1  6
 11 12  1  0
 11 13  1  0
 13 14  1  0
  9 15  1  0
 13 15  1  0
 12 16  1  0
 14 16  1  0
 14 17  1  0
 17 18  1  0
 17 19  1  1
 18 20  1  1
 20 21  1  0
 21 22  2  0
 21 23  1  0
 23 24  1  1
 23 25  1  0
 18 26  1  0
 25 26  1  0
M  END
$$$$
72
     RDKit          3D

 26 29  0  0  0  0  0  0  0  0999 V2000
   20.2241  -13.2645   19.6505 C   0  0  0  0  0  0  0  0  0  0  0  0
   20.0972  -13.4933   20.9511 C   0  0  0  0  0  0  0  0  0  0  0  0
   19.0598  -13.3456   18.8169 C   0  0  0  0  0  0  0  0  0  0  0  0
   18.9054  -13.9393   21.4327 C   0  0  2  0  0  0  0  0  0  0  0  0
   17.6815  -13.8922   20.6529 C   0  0  1  0  0  0  0  0  0  0  0  0
   17.8154  -13.6070   19.2969 C   0  0  0  0  0  0  0  0  0  0  0  0
   16.2221  -14.3840   21.2400 C   0  0  1  0  0  0  0  0  0  0  0  0
   18.7166  -14.1984   22.9526 C   0  0  2  0  0  0  0  0  0  0  0  0
   15.1553  -14.2104   20.5148 N   0  0  0  0  0  0  0  0  0  0  0  0
   14.6112  -12.7918   20.2972 C   0  0  0  0  0  0  0  0  0  0  0  0
   19.8503  -14.1639   23.7386 C   0  0  0  0  0  0  0  0  0  0  0  0
   13.7994  -12.2741   21.2799 C   0  0  1  0  0  0  0  0  0  0  0  0
   14.8714  -12.2063   19.2749 O   0  0  0  0  0  0  0  0  0  0  0  0
   13.1216  -12.9516   22.2162 C   0  0  0  0  0  0  0  0  0  0  0  0
   13.8408  -10.8425   21.6628 C   0  0  0  0  0  0  0  0  0  0  0  0
   19.6073  -14.7218   25.1128 C   0  0  1  0  0  0  0  0  0  0  0  0
   12.6787  -10.3918   22.4279 C   0  0  0  0  0  0  0  0  0  0  0  0
   17.6253  -15.1083   23.2262 C   0  0  2  0  0  0  0  0  0  0  0  0
   12.0197  -12.3176   23.0139 C   0  0  0  0  0  0  0  0  0  0  0  0
   16.3317  -15.0363   22.4887 C   0  0  0  0  0  0  0  0  0  0  0  0
   11.9889  -11.0823   23.2002 C   0  0  2  0  0  0  0  0  0  0  0  0
   20.6054  -14.3273   26.1753 C   0  0  0  0  0  0  0  0  0  0  0  0
   18.5132  -15.4780   25.4787 C   0  0  0  0  0  0  0  0  0  0  0  0
   17.4600  -15.6106   24.5342 N   0  0  0  0  0  0  0  0  0  0  0  0
   11.0124  -10.6076   24.2446 C   0  0  0  0  0  0  0  0  0  0  0  0
   20.2331  -14.4429   27.4069 C   0  0  0  0  0  0  0  0  0  0  0  0
  1  2  1  0
  1  3  1  0
  4  2  1  1
  4  5  1  0
  3  6  1  0
  5  6  1  6
  5  7  1  0
  4  8  1  0
  7  9  1  6
  9 10  1  0
  8 11  1  6
 12 10  1  1
 10 13  2  0
 12 14  1  0
 12 15  1  0
 11 16  1  0
 15 17  1  0
  8 18  1  0
 14 19  1  0
  7 20  1  0
 18 20  1  1
 17 21  1  0
 19 21  1  0
 16 22  1  1
 16 23  1  0
 18 24  1  0
 23 24  1  0
 21 25  1  6
 22 26  2  0
M  END
$$$$
73
     RDKit          3D

 26 31  0  0  0  0  0  0  0  0999 V2000
   12.2371  -10.7362   21.1563 C   0  0  0  0  0  0  0  0  0  0  0  0
   12.1569  -10.8552   22.5034 C   0  0  1  0  0  0  0  0  0  0  0  0
   12.2555   -9.6597   23.3133 C   0  0  0  0  0  0  0  0  0  0  0  0
   11.8279   -9.7930   24.6367 C   0  0  0  0  0  0  0  0  0  0  0  0
   10.9972  -11.0189   24.7953 C   0  0  0  0  0  0  0  0  0  0  0  0
   11.1899  -12.0022   23.7940 C   0  0  0  0  0  0  0  0  0  0  0  0
   11.6809  -11.8966   22.6957 C   0  0  0  0  0  0  0  0  0  0  0  0
   11.8192  -12.7147   21.6905 N   0  0  0  0  0  0  0  0  0  0  0  0
   12.3363  -11.9908   20.6794 N   0  0  0  0  0  0  0  0  0  0  0  0
   12.1988  -14.1443   21.8618 C   0  0  0  0  0  0  0  0  0  0  0  0
   13.4742  -14.4824   21.3278 C   0  0  1  0  0  0  0  0  0  0  0  0
   13.6973  -15.7678   21.0174 C   0  0  0  0  0  0  0  0  0  0  0  0
   13.9382  -13.7235   20.1967 C   0  0  2  0  0  0  0  0  0  0  0  0
   15.1072  -14.2564   19.5965 C   0  0  0  0  0  0  0  0  0  0  0  0
   14.9931  -15.8087   20.2549 N   0  0  0  0  0  0  0  0  0  0  0  0
   16.2903  -15.8468   20.8577 C   0  0  0  0  0  0  0  0  0  0  0  0
   16.1349  -14.0320   18.8469 C   0  0  0  0  0  0  0  0  0  0  0  0
   17.4485  -14.0660   19.5748 N   0  0  0  0  0  0  0  0  0  0  0  0
   13.5766  -12.2938   19.9589 C   0  0  0  0  0  0  0  0  0  0  0  0
   17.4733  -15.2153   20.4370 C   0  0  1  0  0  0  0  0  0  0  0  0
   18.6063  -13.6233   19.0610 C   0  0  0  0  0  0  0  0  0  0  0  0
   18.6974  -12.9648   18.0762 O   0  0  0  0  0  0  0  0  0  0  0  0
   18.6921  -15.4687   21.1228 C   0  0  0  0  0  0  0  0  0  0  0  0
   19.8695  -13.7853   19.7734 C   0  0  1  0  0  0  0  0  0  0  0  0
   20.8194  -12.9554   19.5766 F   0  0  0  0  0  0  0  0  0  0  0  0
   19.6831  -14.3555   21.1331 C   0  0  0  0  0  0  0  0  0  0  0  0
  2  1  1  6
  2  3  1  0
  3  4  1  0
  4  5  1  0
  5  6  1  0
  2  7  1  0
  6  7  1  0
  7  8  1  0
  1  9  1  0
  8  9  1  0
  8 10  1  0
 11 10  1  6
 11 12  1  0
 11 13  1  0
 13 14  1  0
 12 15  1  0
 14 15  1  0
 15 16  1  0
 14 17  1  0
 17 18  1  0
  9 19  1  0
 13 19  1  1
 20 16  1  1
 18 20  1  0
 18 21  1  0
 21 22  2  0
 20 23  1  0
 21 24  1  0
 24 25  1  1
 23 26  1  0
 24 26  1  0
M  END
$$$$
74
     RDKit          3D

 26 30  0  0  0  0  0  0  0  0999 V2000
   12.2371  -10.7362   21.1563 C   0  0  0  0  0  0  0  0  0  0  0  0
   12.1569  -10.8552   22.5034 C   0  0  1  0  0  0  0  0  0  0  0  0
   12.2555   -9.6597   23.3133 C   0  0  0  0  0  0  0  0  0  0  0  0
   11.8279   -9.7930   24.6367 C   0  0  0  0  0  0  0  0  0  0  0  0
   10.9972  -11.0189   24.7953 C   0  0  0  0  0  0  0  0  0  0  0  0
   11.1899  -12.0022   23.7940 C   0  0  0  0  0  0  0  0  0  0  0  0
   11.6809  -11.8966   22.6957 C   0  0  0  0  0  0  0  0  0  0  0  0
   11.8192  -12.7147   21.6905 N   0  0  0  0  0  0  0  0  0  0  0  0
   12.3363  -11.9908   20.6794 N   0  0  0  0  0  0  0  0  0  0  0  0
   12.1988  -14.1443   21.8618 C   0  0  0  0  0  0  0  0  0  0  0  0
   13.4742  -14.4824   21.3278 C   0  0  1  0  0  0  0  0  0  0  0  0
   13.6973  -15.7678   21.0174 C   0  0  0  0  0  0  0  0  0  0  0  0
   13.9382  -13.7235   20.1967 C   0  0  0  0  0  0  0  0  0  0  0  0
   15.1072  -14.2564   19.5965 C   0  0  0  0  0  0  0  0  0  0  0  0
   13.2274  -12.5052   19.6679 C   0  0  0  0  0  0  0  0  0  0  0  0
   15.1082  -15.6780   20.1898 C   0  0  0  0  0  0  0  0  0  0  0  0
   16.0541  -13.7662   18.6796 C   0  0  2  0  0  0  0  0  0  0  0  0
   17.3601  -13.4957   19.2096 C   0  0  0  0  0  0  0  0  0  0  0  0
   15.5045  -12.5522   18.0335 C   0  0  0  0  0  0  0  0  0  0  0  0
   17.4963  -12.9804   20.5015 C   0  0  0  0  0  0  0  0  0  0  0  0
   18.3633  -13.7069   21.4655 C   0  0  0  0  0  0  0  0  0  0  0  0
   18.3159  -13.8492   22.7349 O   0  0  0  0  0  0  0  0  0  0  0  0
   19.5840  -14.3379   20.9460 N   0  0  0  0  0  0  0  0  0  0  0  0
   20.4943  -14.8040   21.8041 O   0  0  0  0  0  0  0  0  0  0  0  0
   19.8517  -14.2606   19.6170 C   0  0  0  0  0  0  0  0  0  0  0  0
   18.7205  -13.6969   18.6564 C   0  0  0  0  0  0  0  0  0  0  0  0
  2  1  1  6
  2  3  1  0
  3  4  1  0
  4  5  1  0
  5  6  1  0
  2  7  1  0
  6  7  1  0
  7  8  1  0
  1  9  1  0
  8  9  1  0
  8 10  1  0
 11 10  1  6
 11 12  1  0
 11 13  1  0
 13 14  1  0
  9 15  1  0
 13 15  1  0
 12 16  1  0
 14 16  1  0
 14 17  1  0
 17 18  1  0
 17 19  1  1
 18 20  1  0
 20 21  1  0
 21 22  2  0
 21 23  1  0
 23 24  1  0
 23 25  1  0
 18 26  1  0
 25 26  1  0
M  END
$$$$
75
     RDKit          3D

 26 30  0  0  0  0  0  0  0  0999 V2000
   12.2371  -10.7362   21.1563 C   0  0  0  0  0  0  0  0  0  0  0  0
   12.1569  -10.8552   22.5034 C   0  0  1  0  0  0  0  0  0  0  0  0
   12.2555   -9.6597   23.3133 C   0  0  0  0  0  0  0  0  0  0  0  0
   11.8279   -9.7930   24.6367 C   0  0  0  0  0  0  0  0  0  0  0  0
   10.9972  -11.0189   24.7953 C   0  0  0  0  0  0  0  0  0  0  0  0
   11.1899  -12.0022   23.7940 C   0  0  0  0  0  0  0  0  0  0  0  0
   11.6809  -11.8966   22.6957 C   0  0  0  0  0  0  0  0  0  0  0  0
   11.8192  -12.7147   21.6905 N   0  0  0  0  0  0  0  0  0  0  0  0
   12.3363  -11.9908   20.6794 N   0  0  0  0  0  0  0  0  0  0  0  0
   12.1988  -14.1443   21.8618 C   0  0  0  0  0  0  0  0  0  0  0  0
   13.4742  -14.4824   21.3278 C   0  0  1  0  0  0  0  0  0  0  0  0
   13.6973  -15.7678   21.0174 C   0  0  0  0  0  0  0  0  0  0  0  0
   13.9382  -13.7235   20.1967 C   0  0  0  0  0  0  0  0  0  0  0  0
   15.1072  -14.2564   19.5965 C   0  0  0  0  0  0  0  0  0  0  0  0
   13.2274  -12.5052   19.6679 C   0  0  0  0  0  0  0  0  0  0  0  0
   15.1082  -15.6780   20.1898 C   0  0  0  0  0  0  0  0  0  0  0  0
   16.0541  -13.7662   18.6796 C   0  0  2  0  0  0  0  0  0  0  0  0
   17.3601  -13.4957   19.2096 C   0  0  1  0  0  0  0  0  0  0  0  0
   15.5045  -12.5522   18.0335 C   0  0  0  0  0  0  0  0  0  0  0  0
   17.4963  -12.9804   20.5015 C   0  0  0  0  0  0  0  0  0  0  0  0
   18.3633  -13.7069   21.4655 C   0  0  0  0  0  0  0  0  0  0  0  0
   18.3159  -13.8492   22.7349 O   0  0  0  0  0  0  0  0  0  0  0  0
   19.3721  -14.6049   20.8418 C   0  0  2  0  0  0  0  0  0  0  0  0
   20.3958  -15.0298   21.7402 N   0  0  0  0  0  0  0  0  0  0  0  0
   20.0322  -13.8854   19.6616 C   0  0  0  0  0  0  0  0  0  0  0  0
   18.6944  -13.7994   18.5986 C   0  0  0  0  0  0  0  0  0  0  0  0
  2  1  1  6
  2  3  1  0
  3  4  1  0
  4  5  1  0
  5  6  1  0
  2  7  1  0
  6  7  1  0
  7  8  1  0
  1  9  1  0
  8  9  1  0
  8 10  1  0
 11 10  1  6
 11 12  1  0
 11 13  1  0
 13 14  1  0
  9 15  1  0
 13 15  1  0
 12 16  1  0
 14 16  1  0
 14 17  1  0
 17 18  1  0
 17 19  1  1
 18 20  1  1
 20 21  1  0
 21 22  2  0
 21 23  1  0
 23 24  1  1
 23 25  1  0
 18 26  1  0
 25 26  1  0
M  END
$$$$
76
     RDKit          3D

 26 31  0  0  0  0  0  0  0  0999 V2000
   20.4163  -12.7958   19.5431 C   0  0  0  0  0  0  0  0  0  0  0  0
   19.3261  -12.9941   18.8427 C   0  0  0  0  0  0  0  0  0  0  0  0
   18.2100  -13.6288   19.4283 C   0  0  2  0  0  0  0  0  0  0  0  0
   20.4117  -13.1752   20.9240 C   0  0  1  0  0  0  0  0  0  0  0  0
   19.2738  -13.7147   21.5190 C   0  0  1  0  0  0  0  0  0  0  0  0
   16.9191  -13.7575   18.7047 C   0  0  0  0  0  0  0  0  0  0  0  0
   18.1770  -14.0276   20.7334 C   0  0  1  0  0  0  0  0  0  0  0  0
   16.8332  -14.3927   21.2194 C   0  0  2  0  0  0  0  0  0  0  0  0
   16.7831  -14.9126   22.5232 O   0  0  0  0  0  0  0  0  0  0  0  0
   15.7341  -14.5555   20.4368 C   0  0  0  0  0  0  0  0  0  0  0  0
   16.3039  -16.1037   22.8056 C   0  0  0  0  0  0  0  0  0  0  0  0
   15.7997  -14.0689   19.2505 C   0  0  0  0  0  0  0  0  0  0  0  0
   17.0621  -16.7285   23.9394 N   0  0  0  0  0  0  0  0  0  0  0  0
   15.5509  -16.8802   22.2243 O   0  0  0  0  0  0  0  0  0  0  0  0
   17.9082  -15.8204   24.7670 C   0  0  0  0  0  0  0  0  0  0  0  0
   18.7161  -14.9788   24.2413 C   0  0  2  0  0  0  0  0  0  0  0  0
   19.3524  -14.2117   22.9770 C   0  0  0  0  0  0  0  0  0  0  0  0
   16.9088  -18.0500   24.3763 C   0  0  0  0  0  0  0  0  0  0  0  0
   19.8403  -14.5510   25.2650 C   0  0  1  0  0  0  0  0  0  0  0  0
   20.8018  -13.5689   25.1473 C   0  0  1  0  0  0  0  0  0  0  0  0
   19.7673  -14.7626   26.7474 C   0  0  0  0  0  0  0  0  0  0  0  0
   20.8702  -14.3308   27.3821 C   0  0  0  0  0  0  0  0  0  0  0  0
   21.5313  -13.4363   26.4336 O   0  0  0  0  0  0  0  0  0  0  0  0
   20.8117  -13.5775   23.0092 C   0  0  1  0  0  0  0  0  0  0  0  0
   21.4805  -13.4422   24.0620 C   0  0  0  0  0  0  0  0  0  0  0  0
   21.3994  -13.3054   21.8383 O   0  0  0  0  0  0  0  0  0  0  0  0
  1  2  1  0
  3  2  1  1
  4  1  1  6
  4  5  1  0
  3  6  1  0
  7  3  1  6
  5  7  1  0
  7  8  1  0
  8  9  1  0
  8 10  1  6
  9 11  1  0
  6 12  1  0
 10 12  1  0
 11 13  1  0
 11 14  2  0
 13 15  1  0
 16 15  1  6
  5 17  1  6
 16 17  1  0
 13 18  1  0
 16 19  1  0
 19 20  1  0
 19 21  1  1
 21 22  1  0
 20 23  1  0
 22 23  1  0
 17 24  1  0
 20 25  1  6
 24 25  1  1
  4 26  1  0
 24 26  1  0
M  END
$$$$
77
     RDKit          3D

 27 29  0  0  0  0  0  0  0  0999 V2000
   10.7999  -10.8985   24.5208 C   0  0  0  0  0  0  0  0  0  0  0  0
   11.7906  -10.1255   23.8461 C   0  0  0  0  0  0  0  0  0  0  0  0
   12.5511  -10.5547   22.8584 C   0  0  0  0  0  0  0  0  0  0  0  0
   13.4398   -9.9061   22.0567 C   0  0  0  0  0  0  0  0  0  0  0  0
   14.1685  -10.6241   21.0567 C   0  0  0  0  0  0  0  0  0  0  0  0
   12.4332  -12.0170   22.5067 C   0  0  2  0  0  0  0  0  0  0  0  0
   12.9302  -12.5206   21.6984 C   0  0  0  0  0  0  0  0  0  0  0  0
   13.8370  -11.9539   20.8145 C   0  0  1  0  0  0  0  0  0  0  0  0
   11.3520  -12.8244   23.3867 C   0  0  0  0  0  0  0  0  0  0  0  0
   10.7716  -12.2635   24.3468 C   0  0  0  0  0  0  0  0  0  0  0  0
   14.5579  -12.4919   19.4768 C   0  0  0  0  0  0  0  0  0  0  0  0
   14.0726  -12.2059   18.3812 O   0  0  0  0  0  0  0  0  0  0  0  0
   15.3858  -13.4751   19.5936 N   0  0  0  0  0  0  0  0  0  0  0  0
   16.0273  -14.0900   18.5572 C   0  0  0  0  0  0  0  0  0  0  0  0
   17.5904  -13.6298   18.6083 C   0  0  0  0  0  0  0  0  0  0  0  0
   18.0384  -13.0491   19.8564 C   0  0  0  0  0  0  0  0  0  0  0  0
   18.9633  -14.0829   20.6093 C   0  0  2  0  0  0  0  0  0  0  0  0
   18.8294  -14.2440   21.9331 C   0  0  2  0  0  0  0  0  0  0  0  0
   20.4371  -13.5204   20.3842 C   0  0  0  0  0  0  0  0  0  0  0  0
   19.6516  -14.8639   22.8274 C   0  0  0  0  0  0  0  0  0  0  0  0
   17.3832  -14.0862   22.5045 C   0  0  0  0  0  0  0  0  0  0  0  0
   19.4355  -15.0601   24.2023 C   0  0  1  0  0  0  0  0  0  0  0  0
   17.1134  -14.4871   23.8147 C   0  0  0  0  0  0  0  0  0  0  0  0
   18.1138  -14.9801   24.6107 C   0  0  0  0  0  0  0  0  0  0  0  0
   20.4174  -15.3969   25.1077 C   0  0  0  0  0  0  0  0  0  0  0  0
   20.7991  -14.3480   26.0908 C   0  0  0  0  0  0  0  0  0  0  0  0
   20.4608  -13.0236   25.8503 F   0  0  0  0  0  0  0  0  0  0  0  0
  1  2  1  0
  2  3  1  0
  3  4  1  0
  4  5  1  0
  3  6  1  0
  6  7  1  6
  5  8  1  0
  7  8  1  0
  6  9  1  0
  1 10  1  0
  9 10  1  0
  8 11  1  6
 11 12  2  0
 11 13  1  0
 13 14  1  0
 14 15  1  0
 15 16  1  0
 16 17  1  0
 17 18  1  0
 17 19  1  1
 18 20  1  6
 18 21  1  0
 20 22  1  0
 21 23  1  0
 22 24  1  0
 23 24  1  0
 22 25  1  6
 25 26  1  0
 26 27  1  0
M  END
$$$$
78
     RDKit          3D

 27 30  0  0  0  0  0  0  0  0999 V2000
   10.7999  -10.8985   24.5208 C   0  0  0  0  0  0  0  0  0  0  0  0
   11.7906  -10.1255   23.8461 C   0  0  0  0  0  0  0  0  0  0  0  0
   12.5511  -10.5547   22.8584 C   0  0  0  0  0  0  0  0  0  0  0  0
   13.4398   -9.9061   22.0567 C   0  0  0  0  0  0  0  0  0  0  0  0
   14.1685  -10.6241   21.0567 C   0  0  0  0  0  0  0  0  0  0  0  0
   12.4332  -12.0170   22.5067 C   0  0  2  0  0  0  0  0  0  0  0  0
   12.9302  -12.5206   21.6984 C   0  0  0  0  0  0  0  0  0  0  0  0
   13.8370  -11.9539   20.8145 C   0  0  0  0  0  0  0  0  0  0  0  0
   11.3617  -12.7389   23.3810 C   0  0  0  0  0  0  0  0  0  0  0  0
   14.5356  -12.6288   19.6670 C   0  0  0  0  0  0  0  0  0  0  0  0
   10.7725  -12.2489   24.3225 C   0  0  0  0  0  0  0  0  0  0  0  0
   15.1484  -13.7579   19.9597 N   0  0  0  0  0  0  0  0  0  0  0  0
   14.4524  -12.1651   18.4950 N   0  0  0  0  0  0  0  0  0  0  0  0
   15.7123  -14.1393   18.6444 C   0  0  0  0  0  0  0  0  0  0  0  0
   15.1951  -13.0526   17.7240 C   0  0  0  0  0  0  0  0  0  0  0  0
   15.3275  -14.3848   21.2203 C   0  0  0  0  0  0  0  0  0  0  0  0
   16.5609  -14.2102   21.8119 C   0  0  1  0  0  0  0  0  0  0  0  0
   17.4082  -13.3698   21.5522 C   0  0  0  0  0  0  0  0  0  0  0  0
   16.8252  -14.9605   22.9913 C   0  0  0  0  0  0  0  0  0  0  0  0
   18.7629  -13.5017   22.0167 C   0  0  1  0  0  0  0  0  0  0  0  0
   19.0311  -14.3328   23.0405 C   0  0  1  0  0  0  0  0  0  0  0  0
   18.1196  -15.0474   23.4626 C   0  0  0  0  0  0  0  0  0  0  0  0
   20.3886  -14.3679   23.4913 O   0  0  0  0  0  0  0  0  0  0  0  0
   19.7586  -12.9761   21.1646 O   0  0  0  0  0  0  0  0  0  0  0  0
   20.5406  -14.3306   24.8236 C   0  0  0  0  0  0  0  0  0  0  0  0
   20.6307  -13.1830   25.5536 C   0  0  0  0  0  0  0  0  0  0  0  0
   20.4613  -13.5872   20.2445 C   0  0  0  0  0  0  0  0  0  0  0  0
  1  2  1  0
  2  3  1  0
  3  4  1  0
  4  5  1  0
  3  6  1  0
  6  7  1  6
  5  8  1  0
  7  8  1  0
  6  9  1  0
  8 10  1  0
  1 11  1  0
  9 11  1  0
 10 12  1  0
 10 13  2  0
 12 14  1  0
 13 15  1  0
 14 15  2  0
 12 16  1  0
 17 16  1  1
 17 18  1  0
 17 19  1  0
 18 20  1  0
 20 21  1  0
 19 22  1  0
 21 22  1  0
 21 23  1  6
 20 24  1  6
 23 25  1  0
 25 26  1  0
 24 27  1  0
M  END
$$$$
79
     RDKit          3D

 27 31  0  0  0  0  0  0  0  0999 V2000
   14.9095  -12.2473   17.3962 C   0  0  2  0  0  0  0  0  0  0  0  0
   14.0706  -12.2957   18.1947 N   0  0  0  0  0  0  0  0  0  0  0  0
   16.2463  -12.7868   17.7363 C   0  0  0  0  0  0  0  0  0  0  0  0
   16.1606  -13.2094   19.0530 C   0  0  2  0  0  0  0  0  0  0  0  0
   14.7735  -11.5162   16.0879 N   0  0  0  0  0  0  0  0  0  0  0  0
   17.1803  -13.8818   19.8648 C   0  0  2  0  0  0  0  0  0  0  0  0
   14.8108  -12.9766   19.4967 C   0  0  2  0  0  0  0  0  0  0  0  0
   13.8372  -13.2442   20.5775 C   0  0  2  0  0  0  0  0  0  0  0  0
   13.1141  -12.2515   21.1219 C   0  0  1  0  0  0  0  0  0  0  0  0
   13.8977  -14.5024   21.1344 C   0  0  2  0  0  0  0  0  0  0  0  0
   14.6683  -15.5944   20.6262 O   0  0  0  0  0  0  0  0  0  0  0  0
   17.0242  -14.8637   20.6649 N   0  0  0  0  0  0  0  0  0  0  0  0
   12.5069  -12.4000   22.0741 C   0  0  0  0  0  0  0  0  0  0  0  0
   15.8990  -15.7558   21.0779 C   0  0  2  0  0  0  0  0  0  0  0  0
   18.3469  -15.3539   21.3258 C   0  0  0  0  0  0  0  0  0  0  0  0
   16.0047  -17.2140   21.3107 C   0  0  0  0  0  0  0  0  0  0  0  0
   18.4578  -13.0932   19.7509 N   0  0  0  0  0  0  0  0  0  0  0  0
   13.0997  -10.7762   20.5569 C   0  0  0  0  0  0  0  0  0  0  0  0
   12.5275  -13.7862   22.7456 C   0  0  0  0  0  0  0  0  0  0  0  0
   13.1217  -14.7604   22.1694 C   0  0  0  0  0  0  0  0  0  0  0  0
   19.5444  -13.5737   20.3370 C   0  0  2  0  0  0  0  0  0  0  0  0
   19.4828  -14.6607   21.1810 C   0  0  0  0  0  0  0  0  0  0  0  0
   11.7323  -11.2727   22.7213 C   0  0  2  0  0  0  0  0  0  0  0  0
   12.2061  -10.1172   21.4654 C   0  0  0  0  0  0  0  0  0  0  0  0
   10.9251  -11.7354   24.0645 C   0  0  0  0  0  0  0  0  0  0  0  0
   20.8824  -12.8270   20.1526 C   0  0  0  0  0  0  0  0  0  0  0  0
   11.5579  -10.3158   22.4799 N   0  0  0  0  0  0  0  0  0  0  0  0
  1  2  1  0
  1  3  1  0
  4  3  1  6
  1  5  1  1
  4  6  1  0
  7  2  1  6
  4  7  1  0
  7  8  1  0
  8  9  1  1
  8 10  1  0
 10 11  1  0
  6 12  1  0
  9 13  1  0
 11 14  1  0
 12 14  1  0
 12 15  1  0
 14 16  1  6
  6 17  1  1
  9 18  1  1
 13 19  1  0
 10 20  1  6
 19 20  1  0
 17 21  1  0
 15 22  1  0
 21 22  1  0
 13 23  1  0
 18 24  1  0
 23 25  1  6
 21 26  1  1
 23 27  1  0
 24 27  1  0
M  END
$$$$
8
     RDKit          3D

 12 13  0  0  0  0  0  0  0  0999 V2000
   12.3397  -11.0162   21.2937 C   0  0  0  0  0  0  0  0  0  0  0  0
   12.1419  -10.8034   22.4944 C   0  0  2  0  0  0  0  0  0  0  0  0
   11.7756  -11.5459   23.2575 C   0  0  2  0  0  0  0  0  0  0  0  0
   11.3835  -11.2395   24.7911 C   0  0  0  0  0  0  0  0  0  0  0  0
   11.3540   -9.8273   24.9313 C   0  0  0  0  0  0  0  0  0  0  0  0
   11.6882  -12.9958   23.0032 C   0  0  0  0  0  0  0  0  0  0  0  0
   11.9392   -8.8798   24.0085 C   0  0  0  0  0  0  0  0  0  0  0  0
   12.0841  -13.3283   21.7294 C   0  0  0  0  0  0  0  0  0  0  0  0
   12.6630  -12.3259   20.8451 C   0  0  1  0  0  0  0  0  0  0  0  0
   13.0833  -12.6787   19.3449 C   0  0  0  0  0  0  0  0  0  0  0  0
   12.3019   -9.3165   22.8288 C   0  0  0  0  0  0  0  0  0  0  0  0
   14.0079  -11.7359   18.9945 O   0  0  0  0  0  0  0  0  0  0  0  0
  2  1  1  6
  2  3  1  0
  3  4  1  1
  4  5  1  0
  3  6  1  0
  5  7  1  0
  6  8  1  0
  1  9  1  0
  8  9  1  0
  9 10  1  6
  2 11  1  0
  7 11  1  0
 10 12  1  0
M  END
$$$$
80
     RDKit          3D

 27 30  0  0  0  0  0  0  0  0999 V2000
   13.5718  -11.5939   19.1816 C   0  0  0  0  0  0  0  0  0  0  0  0
   14.6610  -12.2120   19.3703 C   0  0  0  0  0  0  0  0  0  0  0  0
   12.9534  -11.1365   20.0975 C   0  0  0  0  0  0  0  0  0  0  0  0
   13.2398  -11.5430   21.4185 C   0  0  1  0  0  0  0  0  0  0  0  0
   15.0422  -12.7521   20.7019 C   0  0  2  0  0  0  0  0  0  0  0  0
   14.2320  -12.2565   21.7317 C   0  0  0  0  0  0  0  0  0  0  0  0
   16.2440  -13.5935   21.0205 C   0  0  0  0  0  0  0  0  0  0  0  0
   16.0695  -14.5368   21.9637 C   0  0  0  0  0  0  0  0  0  0  0  0
   17.4492  -13.3566   20.3687 C   0  0  0  0  0  0  0  0  0  0  0  0
   17.2574  -15.3202   22.2145 C   0  0  1  0  0  0  0  0  0  0  0  0
   18.4751  -15.0947   21.7154 C   0  0  0  0  0  0  0  0  0  0  0  0
   12.2965  -10.9716   22.5805 C   0  0  0  0  0  0  0  0  0  0  0  0
   18.5828  -14.0634   20.7421 C   0  0  0  0  0  0  0  0  0  0  0  0
   20.0375  -13.7591   20.0636 Cl  0  0  0  0  0  0  0  0  0  0  0  0
   17.0596  -16.5280   23.3914 C   0  0  0  0  0  0  0  0  0  0  0  0
   17.7514  -16.2925   24.5529 N   0  0  0  0  0  0  0  0  0  0  0  0
   16.4812  -17.4980   23.1609 O   0  0  0  0  0  0  0  0  0  0  0  0
   11.9834  -11.4272   23.5943 C   0  0  0  0  0  0  0  0  0  0  0  0
   17.6400  -17.2542   25.5730 C   0  0  0  0  0  0  0  0  0  0  0  0
   18.7898  -15.2966   24.7343 C   0  0  2  0  0  0  0  0  0  0  0  0
   11.1785  -11.0012   24.4682 C   0  0  0  0  0  0  0  0  0  0  0  0
   18.4039  -16.7293   26.7312 C   0  0  0  0  0  0  0  0  0  0  0  0
   19.2011  -15.5548   26.1172 C   0  0  2  0  0  0  0  0  0  0  0  0
   20.1835  -14.7062   26.6898 C   0  0  0  0  0  0  0  0  0  0  0  0
   20.5936  -13.5769   25.9050 C   0  0  0  0  0  0  0  0  0  0  0  0
   20.1840  -13.5250   24.4808 C   0  0  0  0  0  0  0  0  0  0  0  0
   19.2762  -14.3117   23.9831 C   0  0  0  0  0  0  0  0  0  0  0  0
  1  2  1  0
  1  3  1  0
  3  4  1  0
  2  5  1  0
  4  6  1  0
  5  6  1  0
  5  7  1  1
  7  8  1  0
  7  9  1  0
  8 10  1  0
 10 11  1  0
  4 12  1  1
  9 13  1  0
 11 13  1  0
 13 14  1  0
 10 15  1  1
 15 16  1  0
 15 17  2  0
 12 18  1  0
 16 19  1  0
 16 20  1  0
 18 21  1  0
 19 22  1  0
 20 23  1  0
 23 22  1  1
 23 24  1  0
 24 25  1  0
 25 26  1  0
 20 27  1  1
 26 27  1  0
M  END
$$$$
81
     RDKit          3D

 27 30  0  0  0  0  0  0  0  0999 V2000
   13.5718  -11.5939   19.1816 N   0  0  0  0  0  0  0  0  0  0  0  0
   13.3309  -11.6955   20.4590 C   0  0  0  0  0  0  0  0  0  0  0  0
   14.2604  -12.6446   18.6147 C   0  0  0  0  0  0  0  0  0  0  0  0
   13.9206  -12.7880   21.0796 C   0  0  0  0  0  0  0  0  0  0  0  0
   14.6758  -13.4949   20.0880 C   0  0  2  0  0  0  0  0  0  0  0  0
   14.6006  -13.0358   17.4746 O   0  0  0  0  0  0  0  0  0  0  0  0
   12.4490  -10.6596   21.1508 C   0  0  0  0  0  0  0  0  0  0  0  0
   13.8071  -13.0963   22.4706 C   0  0  0  0  0  0  0  0  0  0  0  0
   12.2515  -10.7916   22.4899 C   0  0  2  0  0  0  0  0  0  0  0  0
   16.1248  -13.1231   19.9724 N   0  0  0  0  0  0  0  0  0  0  0  0
   17.0004  -13.7888   20.6616 C   0  0  2  0  0  0  0  0  0  0  0  0
   18.4396  -13.3201   20.5795 C   0  0  0  0  0  0  0  0  0  0  0  0
   19.4308  -14.0539   20.2192 C   0  0  2  0  0  0  0  0  0  0  0  0
   12.9134  -12.0646   23.1304 C   0  0  1  0  0  0  0  0  0  0  0  0
   16.8256  -14.9838   21.2567 O   0  0  0  0  0  0  0  0  0  0  0  0
   11.4210  -10.0661   23.4071 C   0  0  0  0  0  0  0  0  0  0  0  0
   11.1361  -10.5443   24.6694 C   0  0  0  0  0  0  0  0  0  0  0  0
   11.5982  -11.7769   25.0778 C   0  0  1  0  0  0  0  0  0  0  0  0
   11.0807  -12.2455   26.3349 C   0  0  0  0  0  0  0  0  0  0  0  0
   12.1193  -12.6818   24.0212 C   0  0  0  0  0  0  0  0  0  0  0  0
   18.5524  -11.9116   20.9642 F   0  0  0  0  0  0  0  0  0  0  0  0
   19.4850  -15.3424   20.7716 C   0  0  0  0  0  0  0  0  0  0  0  0
   20.4841  -13.3646   19.5268 F   0  0  0  0  0  0  0  0  0  0  0  0
   18.1720  -15.8706   21.1779 C   0  0  1  0  0  0  0  0  0  0  0  0
   18.0395  -17.1201   21.8236 C   0  0  0  0  0  0  0  0  0  0  0  0
   16.9805  -17.7878   21.6587 O   0  0  0  0  0  0  0  0  0  0  0  0
   16.9186  -19.0073   21.1341 C   0  0  0  0  0  0  0  0  0  0  0  0
  1  2  1  0
  1  3  1  0
  2  4  1  0
  3  5  1  0
  4  5  1  0
  3  6  2  0
  2  7  1  0
  4  8  1  0
  9  7  1  6
  5 10  1  1
 11 10  1  6
 11 12  1  0
 12 13  1  0
 14  8  1  6
  9 14  1  0
 11 15  1  0
  9 16  1  0
 16 17  1  0
 17 18  1  0
 18 19  1  6
 14 20  1  0
 18 20  1  0
 12 21  1  0
 13 22  1  0
 13 23  1  1
 15 24  1  0
 22 24  1  0
 24 25  1  1
 25 26  1  0
 26 27  1  0
M  END
$$$$
82
     RDKit          3D

 27 30  0  0  0  0  0  0  0  0999 V2000
   13.5718  -11.5939   19.1816 N   0  0  0  0  0  0  0  0  0  0  0  0
   13.3309  -11.6955   20.4590 C   0  0  0  0  0  0  0  0  0  0  0  0
   14.2604  -12.6446   18.6147 C   0  0  0  0  0  0  0  0  0  0  0  0
   13.9206  -12.7880   21.0796 C   0  0  0  0  0  0  0  0  0  0  0  0
   14.6758  -13.4949   20.0880 C   0  0  2  0  0  0  0  0  0  0  0  0
   14.6006  -13.0358   17.4746 O   0  0  0  0  0  0  0  0  0  0  0  0
   12.4490  -10.6596   21.1508 C   0  0  0  0  0  0  0  0  0  0  0  0
   13.8071  -13.0963   22.4706 C   0  0  0  0  0  0  0  0  0  0  0  0
   12.2515  -10.7916   22.4899 C   0  0  2  0  0  0  0  0  0  0  0  0
   16.1248  -13.1231   19.9724 N   0  0  0  0  0  0  0  0  0  0  0  0
   17.0004  -13.7888   20.6616 C   0  0  2  0  0  0  0  0  0  0  0  0
   18.4396  -13.3201   20.5795 C   0  0  0  0  0  0  0  0  0  0  0  0
   19.4308  -14.0539   20.2192 C   0  0  2  0  0  0  0  0  0  0  0  0
   12.9134  -12.0646   23.1304 C   0  0  1  0  0  0  0  0  0  0  0  0
   16.8256  -14.9838   21.2567 O   0  0  0  0  0  0  0  0  0  0  0  0
   11.4210  -10.0661   23.4071 C   0  0  0  0  0  0  0  0  0  0  0  0
   11.1361  -10.5443   24.6694 C   0  0  0  0  0  0  0  0  0  0  0  0
   11.5982  -11.7769   25.0778 C   0  0  1  0  0  0  0  0  0  0  0  0
   11.0807  -12.2455   26.3349 C   0  0  0  0  0  0  0  0  0  0  0  0
   12.1193  -12.6818   24.0212 C   0  0  0  0  0  0  0  0  0  0  0  0
   18.5524  -11.9116   20.9642 F   0  0  0  0  0  0  0  0  0  0  0  0
   19.4850  -15.3424   20.7716 C   0  0  0  0  0  0  0  0  0  0  0  0
   20.4841  -13.3646   19.5268 F   0  0  0  0  0  0  0  0  0  0  0  0
   18.1720  -15.8706   21.1779 C   0  0  1  0  0  0  0  0  0  0  0  0
   17.9488  -17.2684   21.8382 C   0  0  0  0  0  0  0  0  0  0  0  0
   18.8700  -17.6505   22.6896 O   0  0  0  0  0  0  0  0  0  0  0  0
   17.0132  -17.9441   21.4856 O   0  0  0  0  0  0  0  0  0  0  0  0
  1  2  1  0
  1  3  1  0
  2  4  1  0
  3  5  1  0
  4  5  1  0
  3  6  2  0
  2  7  1  0
  4  8  1  0
  9  7  1  6
  5 10  1  1
 11 10  1  6
 11 12  1  0
 12 13  1  0
 14  8  1  6
  9 14  1  0
 11 15  1  0
  9 16  1  0
 16 17  1  0
 17 18  1  0
 18 19  1  6
 14 20  1  0
 18 20  1  0
 12 21  1  0
 13 22  1  0
 13 23  1  1
 15 24  1  0
 22 24  1  0
 24 25  1  1
 25 26  2  0
 25 27  1  0
M  END
$$$$
83
     RDKit          3D

 27 31  0  0  0  0  0  0  0  0999 V2000
   10.7999  -10.8985   24.5208 C   0  0  0  0  0  0  0  0  0  0  0  0
   11.7906  -10.1255   23.8461 C   0  0  0  0  0  0  0  0  0  0  0  0
   12.5511  -10.5547   22.8584 C   0  0  0  0  0  0  0  0  0  0  0  0
   13.4398   -9.9061   22.0567 C   0  0  0  0  0  0  0  0  0  0  0  0
   14.1685  -10.6241   21.0567 C   0  0  0  0  0  0  0  0  0  0  0  0
   12.4332  -12.0170   22.5067 C   0  0  2  0  0  0  0  0  0  0  0  0
   12.9302  -12.5206   21.6984 C   0  0  0  0  0  0  0  0  0  0  0  0
   13.8370  -11.9539   20.8145 C   0  0  0  0  0  0  0  0  0  0  0  0
   11.3617  -12.7389   23.3810 C   0  0  0  0  0  0  0  0  0  0  0  0
   14.5356  -12.6288   19.6670 C   0  0  0  0  0  0  0  0  0  0  0  0
   10.7725  -12.2489   24.3225 C   0  0  0  0  0  0  0  0  0  0  0  0
   15.1484  -13.7579   19.9597 N   0  0  0  0  0  0  0  0  0  0  0  0
   14.4524  -12.1651   18.4950 N   0  0  0  0  0  0  0  0  0  0  0  0
   15.7123  -14.1393   18.6444 C   0  0  0  0  0  0  0  0  0  0  0  0
   15.1951  -13.0526   17.7240 C   0  0  0  0  0  0  0  0  0  0  0  0
   15.2390  -14.4990   21.1092 C   0  0  0  0  0  0  0  0  0  0  0  0
   16.4327  -14.3668   21.8370 C   0  0  0  0  0  0  0  0  0  0  0  0
   17.2552  -13.3554   21.7648 N   0  0  0  0  0  0  0  0  0  0  0  0
   16.8095  -15.3941   22.7871 N   0  0  0  0  0  0  0  0  0  0  0  0
   18.6253  -13.1915   21.7040 C   0  0  1  0  0  0  0  0  0  0  0  0
   18.1443  -15.3553   23.1780 C   0  0  2  0  0  0  0  0  0  0  0  0
   19.0342  -14.2794   22.8094 C   0  0  2  0  0  0  0  0  0  0  0  0
   19.2001  -13.4421   20.4290 C   0  0  0  0  0  0  0  0  0  0  0  0
   20.5768  -13.1467   20.3313 C   0  0  0  0  0  0  0  0  0  0  0  0
   18.7352  -16.3591   23.7932 C   0  0  0  0  0  0  0  0  0  0  0  0
   20.0768  -14.4805   23.7451 N   0  0  0  0  0  0  0  0  0  0  0  0
   20.0142  -15.7895   24.2227 C   0  0  0  0  0  0  0  0  0  0  0  0
  1  2  1  0
  2  3  1  0
  3  4  1  0
  4  5  1  0
  3  6  1  0
  6  7  1  6
  5  8  1  0
  7  8  1  0
  6  9  1  0
  8 10  1  0
  1 11  1  0
  9 11  1  0
 10 12  1  0
 10 13  2  0
 12 14  1  0
 13 15  1  0
 14 15  2  0
 12 16  1  0
 16 17  1  0
 17 18  2  0
 17 19  1  0
 18 20  1  0
 19 21  1  0
 20 22  1  0
 21 22  1  0
 20 23  1  6
 23 24  1  0
 21 25  1  6
 22 26  1  1
 25 27  1  0
 26 27  1  0
M  END
$$$$
84
     RDKit          3D

 27 32  0  0  0  0  0  0  0  0999 V2000
   14.9095  -12.2473   17.3962 C   0  0  2  0  0  0  0  0  0  0  0  0
   14.0706  -12.2957   18.1947 N   0  0  0  0  0  0  0  0  0  0  0  0
   16.2463  -12.7868   17.7363 C   0  0  0  0  0  0  0  0  0  0  0  0
   16.1606  -13.2094   19.0530 C   0  0  2  0  0  0  0  0  0  0  0  0
   14.7735  -11.5162   16.0879 N   0  0  0  0  0  0  0  0  0  0  0  0
   17.1803  -13.8818   19.8648 C   0  0  0  0  0  0  0  0  0  0  0  0
   14.8108  -12.9766   19.4967 C   0  0  2  0  0  0  0  0  0  0  0  0
   13.8372  -13.2442   20.5775 C   0  0  2  0  0  0  0  0  0  0  0  0
   13.1141  -12.2515   21.1219 C   0  0  1  0  0  0  0  0  0  0  0  0
   13.8977  -14.5024   21.1344 C   0  0  2  0  0  0  0  0  0  0  0  0
   14.6683  -15.5944   20.6262 O   0  0  0  0  0  0  0  0  0  0  0  0
   17.0242  -14.8637   20.6649 N   0  0  0  0  0  0  0  0  0  0  0  0
   12.5069  -12.4000   22.0741 C   0  0  2  0  0  0  0  0  0  0  0  0
   13.1203  -10.7852   20.9140 C   0  0  0  0  0  0  0  0  0  0  0  0
   13.0187  -14.7742   22.1944 C   0  0  0  0  0  0  0  0  0  0  0  0
   12.2017  -13.6680   22.6053 C   0  0  0  0  0  0  0  0  0  0  0  0
   11.4992  -11.3351   22.8084 C   0  0  0  0  0  0  0  0  0  0  0  0
   11.7964  -10.1103   22.4548 C   0  0  0  0  0  0  0  0  0  0  0  0
   18.5313  -13.3105   19.7159 C   0  0  0  0  0  0  0  0  0  0  0  0
   15.7862  -15.5359   20.9395 C   0  0  0  0  0  0  0  0  0  0  0  0
   19.5087  -13.8123   20.4184 C   0  0  1  0  0  0  0  0  0  0  0  0
   12.6957   -9.8585   21.5152 C   0  0  0  0  0  0  0  0  0  0  0  0
   20.9246  -13.2451   20.3099 C   0  0  0  0  0  0  0  0  0  0  0  0
   19.3211  -14.8524   21.4212 C   0  0  0  0  0  0  0  0  0  0  0  0
   18.0089  -15.3645   21.5242 C   0  0  2  0  0  0  0  0  0  0  0  0
   15.9865  -16.5076   22.0834 C   0  0  0  0  0  0  0  0  0  0  0  0
   17.4932  -16.3764   22.3295 C   0  0  0  0  0  0  0  0  0  0  0  0
  1  2  1  0
  1  3  1  0
  4  3  1  6
  1  5  1  1
  4  6  1  0
  7  2  1  6
  4  7  1  0
  7  8  1  0
  8  9  1  0
  8 10  1  1
 10 11  1  0
  6 12  1  0
  9 13  1  0
  9 14  1  1
 10 15  1  6
 13 16  1  6
 15 16  1  0
 13 17  1  0
 17 18  1  0
  6 19  1  0
 11 20  1  0
 12 20  1  0
 19 21  1  0
 14 22  1  0
 18 22  1  0
 21 23  1  1
 21 24  1  0
 12 25  1  0
 25 24  1  6
 20 26  1  0
 25 27  1  0
 26 27  1  0
M  END
$$$$
85
     RDKit          3D

 28 32  0  0  0  0  0  0  0  0999 V2000
   20.2241  -13.2645   19.6505 C   0  0  0  0  0  0  0  0  0  0  0  0
   20.0972  -13.4933   20.9511 C   0  0  0  0  0  0  0  0  0  0  0  0
   19.0598  -13.3456   18.8169 C   0  0  0  0  0  0  0  0  0  0  0  0
   18.9054  -13.9393   21.4327 C   0  0  2  0  0  0  0  0  0  0  0  0
   17.6815  -13.8922   20.6529 C   0  0  1  0  0  0  0  0  0  0  0  0
   17.8154  -13.6070   19.2969 C   0  0  1  0  0  0  0  0  0  0  0  0
   16.3639  -14.2135   21.2708 C   0  0  2  0  0  0  0  0  0  0  0  0
   18.7400  -14.1653   22.9421 C   0  0  1  0  0  0  0  0  0  0  0  0
   17.4947  -14.5480   23.4712 C   0  0  1  0  0  0  0  0  0  0  0  0
   16.3589  -14.5932   22.6168 N   0  0  0  0  0  0  0  0  0  0  0  0
   17.4349  -14.9354   24.6810 N   0  0  0  0  0  0  0  0  0  0  0  0
   15.1098  -14.5162   20.6357 C   0  0  0  0  0  0  0  0  0  0  0  0
   19.6166  -14.5540   23.9931 N   0  0  0  0  0  0  0  0  0  0  0  0
   18.7199  -15.1829   25.0916 C   0  0  1  0  0  0  0  0  0  0  0  0
   19.3798  -15.4361   26.3158 C   0  0  0  0  0  0  0  0  0  0  0  0
   20.3808  -14.5650   26.8824 C   0  0  0  0  0  0  0  0  0  0  0  0
   18.9034  -16.5629   26.9968 C   0  0  0  0  0  0  0  0  0  0  0  0
   14.4359  -13.4460   19.9971 C   0  0  1  0  0  0  0  0  0  0  0  0
   13.6689  -12.5255   20.8334 C   0  0  2  0  0  0  0  0  0  0  0  0
   15.4114  -12.5353   19.1992 N   0  0  0  0  0  0  0  0  0  0  0  0
   16.6026  -13.1478   18.6801 C   0  0  0  0  0  0  0  0  0  0  0  0
   13.3981  -11.2164   20.5722 N   0  0  0  0  0  0  0  0  0  0  0  0
   13.2936  -12.8237   22.2066 C   0  0  0  0  0  0  0  0  0  0  0  0
   12.3923  -11.7761   22.7010 C   0  0  0  0  0  0  0  0  0  0  0  0
   12.5419  -10.7660   21.7072 C   0  0  0  0  0  0  0  0  0  0  0  0
   11.5040  -11.7689   23.9552 C   0  0  1  0  0  0  0  0  0  0  0  0
   11.2147  -10.5798   24.4916 C   0  0  0  0  0  0  0  0  0  0  0  0
   10.8847  -12.9337   24.3217 N   0  0  0  0  0  0  0  0  0  0  0  0
  1  2  1  0
  1  3  1  0
  4  2  1  1
  4  5  1  0
  6  3  1  1
  5  6  1  6
  5  7  1  0
  4  8  1  0
  8  9  1  0
  7 10  1  0
  9 10  1  6
  9 11  1  0
  7 12  1  6
  8 13  1  6
 11 14  1  0
 13 14  1  0
 14 15  1  1
 15 16  1  0
 15 17  1  0
 18 12  1  1
 18 19  1  0
 18 20  1  0
  6 21  1  0
 20 21  1  0
 19 22  1  0
 19 23  1  1
 23 24  1  0
 22 25  1  0
 24 25  1  0
 24 26  1  0
 26 27  1  6
 26 28  1  0
M  END
$$$$
86
     RDKit          3D

 28 31  0  0  0  0  0  0  0  0999 V2000
   20.1888  -13.6142   20.2995 C   0  0  0  0  0  0  0  0  0  0  0  0
   19.2085  -13.7827   21.1679 C   0  0  1  0  0  0  0  0  0  0  0  0
   19.3001  -14.1798   22.4331 C   0  0  0  0  0  0  0  0  0  0  0  0
   17.8562  -13.2984   20.7269 C   0  0  1  0  0  0  0  0  0  0  0  0
   18.3654  -14.4082   23.1134 C   0  0  0  0  0  0  0  0  0  0  0  0
   20.1271  -13.0811   18.9953 C   0  0  0  0  0  0  0  0  0  0  0  0
   17.6193  -12.6669   19.4970 C   0  0  0  0  0  0  0  0  0  0  0  0
   17.0152  -14.1549   22.6981 C   0  0  0  0  0  0  0  0  0  0  0  0
   18.5671  -12.8418   18.6333 C   0  0  0  0  0  0  0  0  0  0  0  0
   16.8524  -13.6105   21.5171 C   0  0  0  0  0  0  0  0  0  0  0  0
   18.3766  -14.9625   24.6156 C   0  0  2  0  0  0  0  0  0  0  0  0
   15.3547  -13.3119   21.1284 C   0  0  1  0  0  0  0  0  0  0  0  0
   19.5160  -14.4923   25.3653 C   0  0  0  0  0  0  0  0  0  0  0  0
   14.5660  -14.3049   20.7844 C   0  0  1  0  0  0  0  0  0  0  0  0
   17.6100  -15.9245   25.0961 C   0  0  1  0  0  0  0  0  0  0  0  0
   19.7288  -15.0183   26.6277 C   0  0  0  0  0  0  0  0  0  0  0  0
   14.8697  -15.7018   20.8354 O   0  0  0  0  0  0  0  0  0  0  0  0
   16.5148  -16.4877   24.3763 O   0  0  0  0  0  0  0  0  0  0  0  0
   17.8891  -16.4978   26.3241 C   0  0  0  0  0  0  0  0  0  0  0  0
   14.6793  -12.2274   21.7545 C   0  0  0  0  0  0  0  0  0  0  0  0
   18.8993  -16.0569   27.0716 C   0  0  0  0  0  0  0  0  0  0  0  0
   14.4655  -16.5835   21.6017 C   0  0  0  0  0  0  0  0  0  0  0  0
   13.1912  -14.1122   20.3448 C   0  0  1  0  0  0  0  0  0  0  0  0
   13.4360  -11.8174   21.2710 C   0  0  1  0  0  0  0  0  0  0  0  0
   12.4070  -15.0862   19.7944 C   0  0  0  0  0  0  0  0  0  0  0  0
   12.6602  -12.7992   20.6237 C   0  0  0  0  0  0  0  0  0  0  0  0
   20.8122  -14.3856   27.3414 C   0  0  0  0  0  0  0  0  0  0  0  0
   12.8997  -10.2531   21.5584 Cl  0  0  0  0  0  0  0  0  0  0  0  0
  2  1  1  1
  2  3  1  0
  2  4  1  0
  3  5  1  0
  1  6  1  0
  4  7  1  6
  5  8  1  0
  6  9  1  0
  7  9  1  0
  4 10  1  0
  8 10  1  0
 11  5  1  6
 12 10  1  1
 11 13  1  0
 12 14  1  0
 11 15  1  0
 13 16  1  0
 14 17  1  1
 15 18  1  6
 15 19  1  0
 12 20  1  0
 16 21  1  0
 19 21  1  0
 17 22  1  0
 14 23  1  0
 20 24  1  0
 23 25  1  1
 23 26  1  0
 24 26  1  0
 16 27  1  0
 24 28  1  1
M  END
$$$$
87
     RDKit          3D

 28 32  0  0  0  0  0  0  0  0999 V2000
   20.2241  -13.2645   19.6505 C   0  0  0  0  0  0  0  0  0  0  0  0
   20.0972  -13.4933   20.9511 C   0  0  0  0  0  0  0  0  0  0  0  0
   19.0598  -13.3456   18.8169 C   0  0  0  0  0  0  0  0  0  0  0  0
   18.9054  -13.9393   21.4327 C   0  0  2  0  0  0  0  0  0  0  0  0
   17.6815  -13.8922   20.6529 C   0  0  1  0  0  0  0  0  0  0  0  0
   17.8154  -13.6070   19.2969 C   0  0  1  0  0  0  0  0  0  0  0  0
   16.3639  -14.2135   21.2708 C   0  0  2  0  0  0  0  0  0  0  0  0
   18.7400  -14.1653   22.9421 C   0  0  1  0  0  0  0  0  0  0  0  0
   17.4947  -14.5480   23.4712 C   0  0  1  0  0  0  0  0  0  0  0  0
   16.3589  -14.5932   22.6168 N   0  0  0  0  0  0  0  0  0  0  0  0
   17.4349  -14.9354   24.6810 N   0  0  0  0  0  0  0  0  0  0  0  0
   15.1098  -14.5162   20.6357 C   0  0  0  0  0  0  0  0  0  0  0  0
   19.6166  -14.5540   23.9931 N   0  0  0  0  0  0  0  0  0  0  0  0
   18.7199  -15.1829   25.0916 C   0  0  1  0  0  0  0  0  0  0  0  0
   19.3798  -15.4361   26.3158 C   0  0  0  0  0  0  0  0  0  0  0  0
   20.3808  -14.5650   26.8824 C   0  0  0  0  0  0  0  0  0  0  0  0
   18.9034  -16.5629   26.9968 C   0  0  0  0  0  0  0  0  0  0  0  0
   14.4359  -13.4460   19.9971 C   0  0  1  0  0  0  0  0  0  0  0  0
   13.6689  -12.5255   20.8334 C   0  0  1  0  0  0  0  0  0  0  0  0
   15.4114  -12.5353   19.1992 N   0  0  0  0  0  0  0  0  0  0  0  0
   16.6026  -13.1478   18.6801 C   0  0  0  0  0  0  0  0  0  0  0  0
   13.3981  -11.2164   20.5722 N   0  0  0  0  0  0  0  0  0  0  0  0
   12.6031  -10.4931   21.4893 C   0  0  0  0  0  0  0  0  0  0  0  0
   12.9808  -12.9978   22.0251 C   0  0  0  0  0  0  0  0  0  0  0  0
   11.9963  -10.9368   22.5843 C   0  0  0  0  0  0  0  0  0  0  0  0
   12.1982  -12.2676   22.8713 C   0  0  0  0  0  0  0  0  0  0  0  0
   11.1712  -10.0894   23.4741 C   0  0  0  0  0  0  0  0  0  0  0  0
   11.4181  -10.1936   24.8880 N   0  0  0  0  0  0  0  0  0  0  0  0
  1  2  1  0
  1  3  1  0
  4  2  1  1
  4  5  1  0
  6  3  1  1
  5  6  1  6
  5  7  1  0
  4  8  1  0
  8  9  1  0
  7 10  1  0
  9 10  1  6
  9 11  1  0
  7 12  1  6
  8 13  1  6
 11 14  1  0
 13 14  1  0
 14 15  1  1
 15 16  1  0
 15 17  1  0
 18 12  1  1
 18 19  1  0
 18 20  1  0
  6 21  1  0
 20 21  1  0
 19 22  1  0
 22 23  1  0
 19 24  1  6
 23 25  1  0
 24 26  1  0
 25 26  1  0
 25 27  1  0
 27 28  1  0
M  END
$$$$
88
     RDKit          3D

 28 31  0  0  0  0  0  0  0  0999 V2000
   13.5718  -11.5939   19.1816 C   0  0  0  0  0  0  0  0  0  0  0  0
   14.6610  -12.2120   19.3703 C   0  0  1  0  0  0  0  0  0  0  0  0
   12.9534  -11.1365   20.0975 C   0  0  0  0  0  0  0  0  0  0  0  0
   13.2398  -11.5430   21.4185 C   0  0  0  0  0  0  0  0  0  0  0  0
   15.0422  -12.7521   20.7019 C   0  0  2  0  0  0  0  0  0  0  0  0
   14.2320  -12.2565   21.7317 C   0  0  0  0  0  0  0  0  0  0  0  0
   12.1517  -10.9854   22.6663 C   0  0  0  0  0  0  0  0  0  0  0  0
   15.5397  -12.7713   18.2676 C   0  0  0  0  0  0  0  0  0  0  0  0
   16.2397  -13.4823   20.9087 C   0  0  2  0  0  0  0  0  0  0  0  0
   17.0179  -13.8008   19.7679 C   0  0  0  0  0  0  0  0  0  0  0  0
   15.1470  -12.3690   16.9992 O   0  0  0  0  0  0  0  0  0  0  0  0
   12.5450   -9.9811   23.3429 C   0  0  0  0  0  0  0  0  0  0  0  0
   16.6627  -13.4529   18.4985 C   0  0  0  0  0  0  0  0  0  0  0  0
   11.7551  -12.1019   23.5270 C   0  0  0  0  0  0  0  0  0  0  0  0
   10.8970  -11.5526   24.4860 C   0  0  0  0  0  0  0  0  0  0  0  0
   11.3073  -10.2391   24.7369 C   0  0  0  0  0  0  0  0  0  0  0  0
   18.2355  -14.5741   19.9738 O   0  0  0  0  0  0  0  0  0  0  0  0
   16.6471  -13.9671   22.2613 O   0  0  0  0  0  0  0  0  0  0  0  0
   11.9995   -9.4510   24.0326 C   0  0  0  0  0  0  0  0  0  0  0  0
   19.2802  -14.0408   20.7066 C   0  0  1  0  0  0  0  0  0  0  0  0
   19.7636  -14.5263   21.7983 C   0  0  2  0  0  0  0  0  0  0  0  0
   20.3388  -13.4582   19.7352 C   0  0  0  0  0  0  0  0  0  0  0  0
   19.2865  -15.7929   22.1980 O   0  0  0  0  0  0  0  0  0  0  0  0
   19.4184  -16.3375   23.3827 C   0  0  0  0  0  0  0  0  0  0  0  0
   19.5599  -15.2138   24.3654 C   0  0  2  0  0  0  0  0  0  0  0  0
   19.4949  -13.8067   23.2835 C   0  0  0  0  0  0  0  0  0  0  0  0
   20.6037  -15.3666   25.1926 O   0  0  0  0  0  0  0  0  0  0  0  0
   21.0372  -14.2703   25.9366 C   0  0  0  0  0  0  0  0  0  0  0  0
  2  1  1  6
  1  3  1  0
  3  4  1  0
  2  5  1  0
  4  6  1  0
  5  6  1  1
  4  7  1  0
  2  8  1  0
  5  9  1  0
  9 10  1  0
  8 11  2  0
  7 12  1  0
  8 13  1  0
 10 13  1  0
  7 14  1  0
 14 15  1  0
 15 16  1  0
 10 17  1  0
  9 18  1  6
 12 19  1  0
 16 19  1  0
 17 20  1  0
 20 21  1  0
 20 22  1  6
 21 23  1  0
 23 24  1  0
 24 25  1  0
 21 26  1  1
 25 26  1  0
 25 27  1  6
 27 28  1  0
M  END
$$$$
89
     RDKit          3D

 28 30  0  0  0  0  0  0  0  0999 V2000
   20.5943  -13.0623   19.3963 C   0  0  0  0  0  0  0  0  0  0  0  0
   20.1021  -13.3073   20.6742 C   0  0  0  0  0  0  0  0  0  0  0  0
   19.4425  -13.0093   18.6126 C   0  0  0  0  0  0  0  0  0  0  0  0
   18.1537  -13.3282   19.0732 C   0  0  0  0  0  0  0  0  0  0  0  0
   17.9057  -13.5888   20.4166 C   0  0  0  0  0  0  0  0  0  0  0  0
   19.0082  -13.5594   21.2824 C   0  0  0  0  0  0  0  0  0  0  0  0
   16.3657  -13.7738   20.9284 C   0  0  2  0  0  0  0  0  0  0  0  0
   16.3072  -14.6786   21.9205 C   0  0  1  0  0  0  0  0  0  0  0  0
   15.0389  -15.1573   22.2379 N   0  0  0  0  0  0  0  0  0  0  0  0
   15.4591  -13.1297   20.2886 C   0  0  2  0  0  0  0  0  0  0  0  0
   17.3577  -15.3750   22.6860 O   0  0  0  0  0  0  0  0  0  0  0  0
   17.2509  -16.6048   23.0395 C   0  0  0  0  0  0  0  0  0  0  0  0
   15.5794  -12.0523   19.3320 O   0  0  0  0  0  0  0  0  0  0  0  0
   13.9951  -14.4839   21.5653 C   0  0  0  0  0  0  0  0  0  0  0  0
   14.1856  -13.4374   20.6489 C   0  0  1  0  0  0  0  0  0  0  0  0
   17.9874  -16.7613   24.2686 C   0  0  0  0  0  0  0  0  0  0  0  0
   13.1183  -12.5766   20.2216 C   0  0  0  0  0  0  0  0  0  0  0  0
   12.3610  -11.9294   21.2273 C   0  0  0  0  0  0  0  0  0  0  0  0
   18.3103  -15.4489   24.9399 C   0  0  0  0  0  0  0  0  0  0  0  0
   19.7355  -15.0460   24.8533 C   0  0  0  0  0  0  0  0  0  0  0  0
   20.1867  -13.9995   25.7951 C   0  0  0  0  0  0  0  0  0  0  0  0
   11.7012  -12.5882   22.2382 C   0  0  0  0  0  0  0  0  0  0  0  0
   12.2803  -10.4830   21.1763 C   0  0  0  0  0  0  0  0  0  0  0  0
   11.9031   -9.8267   22.3775 C   0  0  0  0  0  0  0  0  0  0  0  0
   20.5330  -14.3959   26.9345 C   0  0  0  0  0  0  0  0  0  0  0  0
   11.3867  -11.8365   23.4259 C   0  0  0  0  0  0  0  0  0  0  0  0
   11.3936  -10.5056   23.4402 C   0  0  0  0  0  0  0  0  0  0  0  0
   11.0469   -9.8403   24.6609 O   0  0  0  0  0  0  0  0  0  0  0  0
  1  2  1  0
  1  3  1  0
  3  4  1  0
  4  5  1  0
  2  6  1  0
  5  6  1  0
  7  5  1  6
  7  8  1  0
  8  9  1  0
  7 10  1  0
  8 11  1  6
 11 12  1  0
 10 13  1  1
  9 14  1  0
 10 15  1  0
 14 15  1  0
 12 16  1  0
 15 17  1  1
 17 18  1  0
 16 19  1  0
 19 20  1  0
 20 21  1  0
 18 22  1  0
 18 23  1  0
 23 24  1  0
 21 25  1  0
 22 26  1  0
 24 27  1  0
 26 27  1  0
 27 28  1  0
M  END
$$$$
9
     RDKit          3D

 12 13  0  0  0  0  0  0  0  0999 V2000
   12.3397  -11.0162   21.2937 C   0  0  0  0  0  0  0  0  0  0  0  0
   12.1419  -10.8034   22.4944 C   0  0  0  0  0  0  0  0  0  0  0  0
   13.1198  -11.9651   20.9002 C   0  0  1  0  0  0  0  0  0  0  0  0
   13.4851  -12.9338   21.7967 C   0  0  2  0  0  0  0  0  0  0  0  0
   13.4686  -12.1571   19.3650 C   0  0  0  0  0  0  0  0  0  0  0  0
   13.6645  -11.1529   18.6265 O   0  0  0  0  0  0  0  0  0  0  0  0
   13.1069  -12.7927   23.0814 C   0  0  0  0  0  0  0  0  0  0  0  0
   14.5269  -13.6818   21.2961 C   0  0  0  0  0  0  0  0  0  0  0  0
   13.9438  -13.3242   18.8943 N   0  0  0  0  0  0  0  0  0  0  0  0
   12.3538  -11.7279   23.4909 C   0  0  0  0  0  0  0  0  0  0  0  0
   11.7268  -11.4088   24.7302 N   0  0  0  0  0  0  0  0  0  0  0  0
   14.6238  -14.1656   19.9611 C   0  0  0  0  0  0  0  0  0  0  0  0
  1  2  1  0
  3  1  1  6
  3  4  1  0
  3  5  1  0
  5  6  2  0
  4  7  1  1
  4  8  1  0
  5  9  1  0
  2 10  1  0
  7 10  1  0
 10 11  1  0
  8 12  1  0
  9 12  1  0
M  END
$$$$
90
     RDKit          3D

 28 31  0  0  0  0  0  0  0  0999 V2000
   10.7999  -10.8985   24.5208 C   0  0  0  0  0  0  0  0  0  0  0  0
   11.7906  -10.1255   23.8461 C   0  0  0  0  0  0  0  0  0  0  0  0
   12.5511  -10.5547   22.8584 C   0  0  0  0  0  0  0  0  0  0  0  0
   13.4398   -9.9061   22.0567 C   0  0  0  0  0  0  0  0  0  0  0  0
   14.1685  -10.6241   21.0567 C   0  0  0  0  0  0  0  0  0  0  0  0
   12.4332  -12.0170   22.5067 C   0  0  2  0  0  0  0  0  0  0  0  0
   12.9302  -12.5206   21.6984 C   0  0  0  0  0  0  0  0  0  0  0  0
   13.8370  -11.9539   20.8145 C   0  0  0  0  0  0  0  0  0  0  0  0
   11.3617  -12.7389   23.3810 C   0  0  0  0  0  0  0  0  0  0  0  0
   14.5356  -12.6288   19.6670 C   0  0  0  0  0  0  0  0  0  0  0  0
   10.7725  -12.2489   24.3225 C   0  0  0  0  0  0  0  0  0  0  0  0
   15.1484  -13.7579   19.9597 N   0  0  0  0  0  0  0  0  0  0  0  0
   14.4524  -12.1651   18.4950 N   0  0  0  0  0  0  0  0  0  0  0  0
   15.7123  -14.1393   18.6444 C   0  0  0  0  0  0  0  0  0  0  0  0
   15.1951  -13.0526   17.7240 C   0  0  0  0  0  0  0  0  0  0  0  0
   15.2390  -14.4990   21.1092 C   0  0  0  0  0  0  0  0  0  0  0  0
   16.4327  -14.3668   21.8370 C   0  0  0  0  0  0  0  0  0  0  0  0
   17.2552  -13.3554   21.7648 N   0  0  0  0  0  0  0  0  0  0  0  0
   16.8095  -15.3941   22.7871 N   0  0  0  0  0  0  0  0  0  0  0  0
   18.6253  -13.1915   21.7040 C   0  0  1  0  0  0  0  0  0  0  0  0
   18.1443  -15.3553   23.1780 C   0  0  0  0  0  0  0  0  0  0  0  0
   19.0342  -14.2794   22.8094 C   0  0  2  0  0  0  0  0  0  0  0  0
   19.2001  -13.4421   20.4290 C   0  0  0  0  0  0  0  0  0  0  0  0
   20.5768  -13.1467   20.3313 C   0  0  0  0  0  0  0  0  0  0  0  0
   18.7352  -16.3591   23.7932 O   0  0  0  0  0  0  0  0  0  0  0  0
   20.2461  -14.1488   23.5610 C   0  0  0  0  0  0  0  0  0  0  0  0
   20.3007  -14.1051   24.9597 C   0  0  0  0  0  0  0  0  0  0  0  0
   21.1867  -13.3258   25.7181 C   0  0  0  0  0  0  0  0  0  0  0  0
  1  2  1  0
  2  3  1  0
  3  4  1  0
  4  5  1  0
  3  6  1  0
  6  7  1  6
  5  8  1  0
  7  8  1  0
  6  9  1  0
  8 10  1  0
  1 11  1  0
  9 11  1  0
 10 12  1  0
 10 13  2  0
 12 14  1  0
 13 15  1  0
 14 15  2  0
 12 16  1  0
 16 17  1  0
 17 18  2  0
 17 19  1  0
 18 20  1  0
 19 21  1  0
 20 22  1  0
 21 22  1  0
 20 23  1  6
 23 24  1  0
 21 25  2  0
 22 26  1  1
 26 27  1  0
 27 28  1  0
M  END
$$$$
91
     RDKit          3D

 28 33  0  0  0  0  0  0  0  0999 V2000
   14.9095  -12.2473   17.3962 C   0  0  2  0  0  0  0  0  0  0  0  0
   14.0706  -12.2957   18.1947 N   0  0  0  0  0  0  0  0  0  0  0  0
   16.2463  -12.7868   17.7363 C   0  0  0  0  0  0  0  0  0  0  0  0
   16.1606  -13.2094   19.0530 C   0  0  2  0  0  0  0  0  0  0  0  0
   14.7735  -11.5162   16.0879 N   0  0  0  0  0  0  0  0  0  0  0  0
   17.1803  -13.8818   19.8648 C   0  0  2  0  0  0  0  0  0  0  0  0
   14.8108  -12.9766   19.4967 C   0  0  2  0  0  0  0  0  0  0  0  0
   13.8372  -13.2442   20.5775 C   0  0  2  0  0  0  0  0  0  0  0  0
   13.1141  -12.2515   21.1219 C   0  0  0  0  0  0  0  0  0  0  0  0
   13.8977  -14.5024   21.1344 C   0  0  2  0  0  0  0  0  0  0  0  0
   14.6683  -15.5944   20.6262 O   0  0  0  0  0  0  0  0  0  0  0  0
   17.0242  -14.8637   20.6649 N   0  0  0  0  0  0  0  0  0  0  0  0
   15.8312  -15.7747   21.0078 C   0  0  1  0  0  0  0  0  0  0  0  0
   16.3978  -16.5369   22.2158 C   0  0  0  0  0  0  0  0  0  0  0  0
   18.1597  -15.4049   21.4879 C   0  0  1  0  0  0  0  0  0  0  0  0
   18.5031  -13.1985   19.7208 C   0  0  0  0  0  0  0  0  0  0  0  0
   19.6679  -13.7003   20.3781 C   0  0  1  0  0  0  0  0  0  0  0  0
   20.8919  -13.0793   20.1820 C   0  0  0  0  0  0  0  0  0  0  0  0
   13.1982  -10.7857   20.7416 N   0  0  0  0  0  0  0  0  0  0  0  0
   12.1561  -12.4562   22.1441 C   0  0  2  0  0  0  0  0  0  0  0  0
   11.5306  -11.3944   22.7037 C   0  0  2  0  0  0  0  0  0  0  0  0
   12.8355  -14.7698   22.0511 C   0  0  0  0  0  0  0  0  0  0  0  0
   19.4177  -14.7034   21.3352 C   0  0  0  0  0  0  0  0  0  0  0  0
   12.0291  -13.7768   22.5680 C   0  0  0  0  0  0  0  0  0  0  0  0
   12.2700  -10.1377   21.5826 C   0  0  0  0  0  0  0  0  0  0  0  0
   17.6923  -16.3811   22.2965 N   0  0  0  0  0  0  0  0  0  0  0  0
   10.7357  -11.1167   23.6815 C   0  0  0  0  0  0  0  0  0  0  0  0
   11.0960  -10.1307   24.6526 C   0  0  0  0  0  0  0  0  0  0  0  0
  1  2  1  0
  1  3  1  0
  4  3  1  6
  1  5  1  1
  4  6  1  0
  7  2  1  6
  4  7  1  0
  7  8  1  0
  8  9  1  1
  8 10  1  0
 10 11  1  0
  6 12  1  0
 11 13  1  0
 12 13  1  0
 13 14  1  1
 12 15  1  0
  6 16  1  1
 16 17  1  0
 17 18  1  1
  9 19  1  0
  9 20  1  0
 20 21  1  0
 10 22  1  6
 15 23  1  1
 17 23  1  0
 20 24  1  1
 22 24  1  0
 19 25  1  0
 21 25  1  0
 14 26  1  0
 15 26  1  0
 21 27  1  1
 27 28  1  0
M  END
$$$$
92
     RDKit          3D

 28 34  0  0  0  0  0  0  0  0999 V2000
   12.2371  -10.7362   21.1563 C   0  0  0  0  0  0  0  0  0  0  0  0
   12.1569  -10.8552   22.5034 C   0  0  1  0  0  0  0  0  0  0  0  0
   12.2555   -9.6597   23.3133 C   0  0  0  0  0  0  0  0  0  0  0  0
   11.8279   -9.7930   24.6367 C   0  0  0  0  0  0  0  0  0  0  0  0
   10.9972  -11.0189   24.7953 C   0  0  0  0  0  0  0  0  0  0  0  0
   11.1899  -12.0022   23.7940 C   0  0  0  0  0  0  0  0  0  0  0  0
   11.6809  -11.8966   22.6957 C   0  0  0  0  0  0  0  0  0  0  0  0
   11.8192  -12.7147   21.6905 N   0  0  0  0  0  0  0  0  0  0  0  0
   12.3363  -11.9908   20.6794 N   0  0  0  0  0  0  0  0  0  0  0  0
   12.1988  -14.1443   21.8618 C   0  0  0  0  0  0  0  0  0  0  0  0
   13.4742  -14.4824   21.3278 C   0  0  1  0  0  0  0  0  0  0  0  0
   13.6973  -15.7678   21.0174 C   0  0  0  0  0  0  0  0  0  0  0  0
   13.9382  -13.7235   20.1967 C   0  0  2  0  0  0  0  0  0  0  0  0
   15.1072  -14.2564   19.5965 C   0  0  0  0  0  0  0  0  0  0  0  0
   14.9931  -15.8087   20.2549 N   0  0  0  0  0  0  0  0  0  0  0  0
   16.2903  -15.8468   20.8577 C   0  0  2  0  0  0  0  0  0  0  0  0
   16.1349  -14.0320   18.8469 C   0  0  0  0  0  0  0  0  0  0  0  0
   17.4485  -14.0660   19.5748 N   0  0  0  0  0  0  0  0  0  0  0  0
   13.5766  -12.2938   19.9589 C   0  0  0  0  0  0  0  0  0  0  0  0
   17.4733  -15.2153   20.4370 C   0  0  1  0  0  0  0  0  0  0  0  0
   18.6063  -13.6233   19.0610 C   0  0  0  0  0  0  0  0  0  0  0  0
   18.6974  -12.9648   18.0762 O   0  0  0  0  0  0  0  0  0  0  0  0
   18.6921  -15.4687   21.1228 C   0  0  1  0  0  0  0  0  0  0  0  0
   19.8695  -13.7853   19.7734 C   0  0  0  0  0  0  0  0  0  0  0  0
   18.7040  -16.4372   22.2062 C   0  0  0  0  0  0  0  0  0  0  0  0
   19.9568  -14.9106   20.6714 C   0  0  0  0  0  0  0  0  0  0  0  0
   17.4891  -17.1575   22.4271 C   0  0  0  0  0  0  0  0  0  0  0  0
   16.4697  -16.8654   21.8584 C   0  0  0  0  0  0  0  0  0  0  0  0
  2  1  1  6
  2  3  1  0
  3  4  1  0
  4  5  1  0
  5  6  1  0
  2  7  1  0
  6  7  1  0
  7  8  1  0
  1  9  1  0
  8  9  1  0
  8 10  1  0
 11 10  1  6
 11 12  1  0
 11 13  1  0
 13 14  1  0
 12 15  1  0
 14 15  1  0
 15 16  1  0
 14 17  1  0
 17 18  1  0
  9 19  1  0
 13 19  1  1
 16 20  1  0
 20 18  1  1
 18 21  1  0
 21 22  2  0
 20 23  1  0
 21 24  1  0
 23 25  1  6
 23 26  1  0
 24 26  1  0
 25 27  1  0
 16 28  1  6
 27 28  1  0
M  END
$$$$
93
     RDKit          3D

 28 30  0  0  0  0  0  0  0  0999 V2000
   20.5943  -13.0623   19.3963 C   0  0  0  0  0  0  0  0  0  0  0  0
   20.1021  -13.3073   20.6742 C   0  0  0  0  0  0  0  0  0  0  0  0
   19.4425  -13.0093   18.6126 C   0  0  0  0  0  0  0  0  0  0  0  0
   18.1537  -13.3282   19.0732 C   0  0  0  0  0  0  0  0  0  0  0  0
   17.9057  -13.5888   20.4166 C   0  0  0  0  0  0  0  0  0  0  0  0
   19.0082  -13.5594   21.2824 C   0  0  0  0  0  0  0  0  0  0  0  0
   16.3657  -13.7738   20.9284 C   0  0  2  0  0  0  0  0  0  0  0  0
   16.3072  -14.6786   21.9205 C   0  0  1  0  0  0  0  0  0  0  0  0
   15.0389  -15.1573   22.2379 N   0  0  0  0  0  0  0  0  0  0  0  0
   15.4591  -13.1297   20.2886 C   0  0  2  0  0  0  0  0  0  0  0  0
   17.3577  -15.3750   22.6860 O   0  0  0  0  0  0  0  0  0  0  0  0
   17.2509  -16.6048   23.0395 C   0  0  0  0  0  0  0  0  0  0  0  0
   15.5794  -12.0523   19.3320 O   0  0  0  0  0  0  0  0  0  0  0  0
   13.9951  -14.4839   21.5653 C   0  0  0  0  0  0  0  0  0  0  0  0
   14.1856  -13.4374   20.6489 C   0  0  1  0  0  0  0  0  0  0  0  0
   17.9874  -16.7613   24.2686 C   0  0  0  0  0  0  0  0  0  0  0  0
   13.1183  -12.5766   20.2216 C   0  0  0  0  0  0  0  0  0  0  0  0
   12.3610  -11.9294   21.2273 C   0  0  0  0  0  0  0  0  0  0  0  0
   18.3103  -15.4489   24.9399 C   0  0  0  0  0  0  0  0  0  0  0  0
   19.7355  -15.0460   24.8533 C   0  0  0  0  0  0  0  0  0  0  0  0
   20.1867  -13.9995   25.7951 C   0  0  0  0  0  0  0  0  0  0  0  0
   11.7012  -12.5882   22.2382 C   0  0  0  0  0  0  0  0  0  0  0  0
   12.2803  -10.4830   21.1763 C   0  0  0  0  0  0  0  0  0  0  0  0
   11.9031   -9.8267   22.3775 C   0  0  0  0  0  0  0  0  0  0  0  0
   20.5330  -14.3959   26.9345 C   0  0  0  0  0  0  0  0  0  0  0  0
   11.3867  -11.8365   23.4259 C   0  0  0  0  0  0  0  0  0  0  0  0
   11.3936  -10.5056   23.4402 C   0  0  0  0  0  0  0  0  0  0  0  0
   11.0469   -9.8403   24.6609 N   0  0  0  0  0  0  0  0  0  0  0  0
  1  2  1  0
  1  3  1  0
  3  4  1  0
  4  5  1  0
  2  6  1  0
  5  6  1  0
  7  5  1  6
  7  8  1  0
  8  9  1  0
  7 10  1  0
  8 11  1  6
 11 12  1  0
 10 13  1  1
  9 14  1  0
 10 15  1  0
 14 15  1  0
 12 16  1  0
 15 17  1  1
 17 18  1  0
 16 19  1  0
 19 20  1  0
 20 21  1  0
 18 22  1  0
 18 23  1  0
 23 24  1  0
 21 25  1  0
 22 26  1  0
 24 27  1  0
 26 27  1  0
 27 28  1  0
M  END
$$$$
94
     RDKit          3D

 28 30  0  0  0  0  0  0  0  0999 V2000
   20.5943  -13.0623   19.3963 C   0  0  0  0  0  0  0  0  0  0  0  0
   20.1021  -13.3073   20.6742 C   0  0  0  0  0  0  0  0  0  0  0  0
   19.4425  -13.0093   18.6126 C   0  0  0  0  0  0  0  0  0  0  0  0
   18.1537  -13.3282   19.0732 C   0  0  0  0  0  0  0  0  0  0  0  0
   17.9057  -13.5888   20.4166 C   0  0  0  0  0  0  0  0  0  0  0  0
   19.0082  -13.5594   21.2824 C   0  0  0  0  0  0  0  0  0  0  0  0
   16.3657  -13.7738   20.9284 C   0  0  2  0  0  0  0  0  0  0  0  0
   16.3072  -14.6786   21.9205 C   0  0  1  0  0  0  0  0  0  0  0  0
   15.0389  -15.1573   22.2379 N   0  0  0  0  0  0  0  0  0  0  0  0
   15.4591  -13.1297   20.2886 C   0  0  2  0  0  0  0  0  0  0  0  0
   17.3577  -15.3750   22.6860 O   0  0  0  0  0  0  0  0  0  0  0  0
   17.2509  -16.6048   23.0395 C   0  0  0  0  0  0  0  0  0  0  0  0
   15.5794  -12.0523   19.3320 O   0  0  0  0  0  0  0  0  0  0  0  0
   13.9951  -14.4839   21.5653 C   0  0  0  0  0  0  0  0  0  0  0  0
   14.1856  -13.4374   20.6489 C   0  0  1  0  0  0  0  0  0  0  0  0
   17.9874  -16.7613   24.2686 C   0  0  0  0  0  0  0  0  0  0  0  0
   13.1183  -12.5766   20.2216 C   0  0  0  0  0  0  0  0  0  0  0  0
   12.3610  -11.9294   21.2273 C   0  0  1  0  0  0  0  0  0  0  0  0
   18.3103  -15.4489   24.9399 C   0  0  0  0  0  0  0  0  0  0  0  0
   19.7355  -15.0460   24.8533 C   0  0  0  0  0  0  0  0  0  0  0  0
   20.1867  -13.9995   25.7951 C   0  0  0  0  0  0  0  0  0  0  0  0
   11.7012  -12.5882   22.2382 C   0  0  0  0  0  0  0  0  0  0  0  0
   11.4001  -11.7795   23.4407 C   0  0  0  0  0  0  0  0  0  0  0  0
   20.4680  -14.3860   26.9699 C   0  0  0  0  0  0  0  0  0  0  0  0
   11.6984  -10.4331   23.4097 C   0  0  2  0  0  0  0  0  0  0  0  0
   12.4847   -9.8301   22.3945 C   0  0  0  0  0  0  0  0  0  0  0  0
   11.4335   -9.6108   24.8629 Cl  0  0  0  0  0  0  0  0  0  0  0  0
   12.8742  -10.5124   21.3247 C   0  0  0  0  0  0  0  0  0  0  0  0
  1  2  1  0
  1  3  1  0
  3  4  1  0
  4  5  1  0
  2  6  1  0
  5  6  1  0
  7  5  1  6
  7  8  1  0
  8  9  1  0
  7 10  1  0
  8 11  1  6
 11 12  1  0
 10 13  1  1
  9 14  1  0
 10 15  1  0
 14 15  1  0
 12 16  1  0
 15 17  1  1
 18 17  1  1
 16 19  1  0
 19 20  1  0
 20 21  1  0
 18 22  1  0
 22 23  1  0
 21 24  1  0
 23 25  1  0
 25 26  1  0
 25 27  1  1
 18 28  1  0
 26 28  1  0
M  END
$$$$
95
     RDKit          3D

 28 33  0  0  0  0  0  0  0  0999 V2000
   14.9095  -12.2473   17.3962 C   0  0  2  0  0  0  0  0  0  0  0  0
   14.0706  -12.2957   18.1947 N   0  0  0  0  0  0  0  0  0  0  0  0
   16.2463  -12.7868   17.7363 C   0  0  0  0  0  0  0  0  0  0  0  0
   16.1606  -13.2094   19.0530 C   0  0  2  0  0  0  0  0  0  0  0  0
   14.7735  -11.5162   16.0879 N   0  0  0  0  0  0  0  0  0  0  0  0
   17.1803  -13.8818   19.8648 C   0  0  0  0  0  0  0  0  0  0  0  0
   14.8108  -12.9766   19.4967 C   0  0  2  0  0  0  0  0  0  0  0  0
   13.8372  -13.2442   20.5775 C   0  0  2  0  0  0  0  0  0  0  0  0
   13.1141  -12.2515   21.1219 C   0  0  1  0  0  0  0  0  0  0  0  0
   13.8977  -14.5024   21.1344 C   0  0  2  0  0  0  0  0  0  0  0  0
   14.6683  -15.5944   20.6262 O   0  0  0  0  0  0  0  0  0  0  0  0
   17.0242  -14.8637   20.6649 N   0  0  0  0  0  0  0  0  0  0  0  0
   12.5069  -12.4000   22.0741 C   0  0  2  0  0  0  0  0  0  0  0  0
   13.1203  -10.7852   20.9140 C   0  0  0  0  0  0  0  0  0  0  0  0
   13.0187  -14.7742   22.1944 C   0  0  0  0  0  0  0  0  0  0  0  0
   12.2017  -13.6680   22.6053 C   0  0  0  0  0  0  0  0  0  0  0  0
   11.4992  -11.3351   22.8084 C   0  0  0  0  0  0  0  0  0  0  0  0
   11.7964  -10.1103   22.4548 C   0  0  0  0  0  0  0  0  0  0  0  0
   18.5313  -13.3105   19.7159 C   0  0  0  0  0  0  0  0  0  0  0  0
   15.7862  -15.5359   20.9395 C   0  0  1  0  0  0  0  0  0  0  0  0
   19.5087  -13.8123   20.4184 C   0  0  0  0  0  0  0  0  0  0  0  0
   12.6957   -9.8585   21.5152 C   0  0  0  0  0  0  0  0  0  0  0  0
   19.3017  -14.8676   21.2903 C   0  0  0  0  0  0  0  0  0  0  0  0
   20.3538  -15.4071   22.1261 O   0  0  0  0  0  0  0  0  0  0  0  0
   16.1603  -16.3742   22.0842 C   0  0  0  0  0  0  0  0  0  0  0  0
   20.9921  -13.1683   20.3076 Cl  0  0  0  0  0  0  0  0  0  0  0  0
   18.0185  -15.4157   21.3483 C   0  0  1  0  0  0  0  0  0  0  0  0
   17.6513  -16.5030   22.2008 C   0  0  0  0  0  0  0  0  0  0  0  0
  1  2  1  0
  1  3  1  0
  4  3  1  6
  1  5  1  1
  4  6  1  0
  7  2  1  6
  4  7  1  0
  7  8  1  0
  8  9  1  0
  8 10  1  1
 10 11  1  0
  6 12  1  0
  9 13  1  0
  9 14  1  1
 10 15  1  6
 13 16  1  6
 15 16  1  0
 13 17  1  0
 17 18  1  0
  6 19  1  0
 11 20  1  0
 12 20  1  0
 19 21  1  0
 14 22  1  0
 18 22  1  0
 21 23  1  0
 23 24  1  0
 20 25  1  1
 21 26  1  0
 12 27  1  0
 23 27  1  0
 25 28  1  0
 27 28  1  1
M  END
$$$$
96
     RDKit          3D

 28 32  0  0  0  0  0  0  0  0999 V2000
   20.5422  -13.8875   26.0318 C   0  0  0  0  0  0  0  0  0  0  0  0
   20.2847  -13.9803   24.7433 C   0  0  0  0  0  0  0  0  0  0  0  0
   20.1912  -14.9394   26.7368 C   0  0  0  0  0  0  0  0  0  0  0  0
   19.5339  -14.9825   24.0813 C   0  0  0  0  0  0  0  0  0  0  0  0
   19.0753  -16.0323   24.9604 C   0  0  0  0  0  0  0  0  0  0  0  0
   19.3988  -16.0382   26.2781 C   0  0  0  0  0  0  0  0  0  0  0  0
   19.2593  -14.9265   22.5566 C   0  0  1  0  0  0  0  0  0  0  0  0
   19.8349  -14.0580   21.7826 C   0  0  0  0  0  0  0  0  0  0  0  0
   19.1058  -16.1973   21.8895 C   0  0  0  0  0  0  0  0  0  0  0  0
   19.4226  -13.7366   20.6091 C   0  0  2  0  0  0  0  0  0  0  0  0
   20.2057  -12.8495   19.6936 C   0  0  0  0  0  0  0  0  0  0  0  0
   18.0957  -14.1342   20.1431 C   0  0  2  0  0  0  0  0  0  0  0  0
   17.4091  -13.6405   19.0791 C   0  0  2  0  0  0  0  0  0  0  0  0
   18.2375  -12.8056   18.1775 N   0  0  0  0  0  0  0  0  0  0  0  0
   17.6693  -12.5304   16.9498 C   0  0  0  0  0  0  0  0  0  0  0  0
   17.7840  -16.0870   21.0194 C   0  0  0  0  0  0  0  0  0  0  0  0
   19.6129  -12.7328   18.3286 C   0  0  0  0  0  0  0  0  0  0  0  0
   16.0415  -13.3776   19.0190 C   0  0  0  0  0  0  0  0  0  0  0  0
   15.1561  -13.8189   20.0987 C   0  0  2  0  0  0  0  0  0  0  0  0
   15.7094  -14.7433   20.9817 C   0  0  0  0  0  0  0  0  0  0  0  0
   14.9791  -15.4238   21.9630 O   0  0  0  0  0  0  0  0  0  0  0  0
   17.1382  -14.9864   20.8132 C   0  0  2  0  0  0  0  0  0  0  0  0
   13.8385  -13.6595   20.3706 C   0  0  1  0  0  0  0  0  0  0  0  0
   13.9002  -15.5861   21.6335 C   0  0  0  0  0  0  0  0  0  0  0  0
   13.1486  -12.4857   19.6285 C   0  0  0  0  0  0  0  0  0  0  0  0
   13.6111  -11.9570   18.6168 O   0  0  0  0  0  0  0  0  0  0  0  0
   12.2186  -11.9726   20.3250 O   0  0  0  0  0  0  0  0  0  0  0  0
   13.1481  -14.5532   21.0491 C   0  0  0  0  0  0  0  0  0  0  0  0
  1  2  1  0
  1  3  1  0
  2  4  1  0
  4  5  1  0
  3  6  1  0
  5  6  1  0
  7  4  1  1
  7  8  1  0
  7  9  1  0
 10  8  1  1
 10 11  1  0
 12 10  1  1
 12 13  1  0
 13 14  1  0
 14 15  1  0
  9 16  1  0
 11 17  1  0
 14 17  1  0
 13 18  1  1
 19 18  1  6
 19 20  1  0
 20 21  1  0
 12 22  1  0
 22 16  1  6
 20 22  1  0
 19 23  1  0
 21 24  1  0
 23 25  1  6
 25 26  2  0
 25 27  1  0
 23 28  1  0
 24 28  1  0
M  END
$$$$
97
     RDKit          3D

 28 32  0  0  0  0  0  0  0  0999 V2000
   20.2241  -13.2645   19.6505 C   0  0  0  0  0  0  0  0  0  0  0  0
   20.0972  -13.4933   20.9511 C   0  0  0  0  0  0  0  0  0  0  0  0
   19.0598  -13.3456   18.8169 C   0  0  0  0  0  0  0  0  0  0  0  0
   18.9054  -13.9393   21.4327 C   0  0  2  0  0  0  0  0  0  0  0  0
   17.6815  -13.8922   20.6529 C   0  0  1  0  0  0  0  0  0  0  0  0
   17.8154  -13.6070   19.2969 C   0  0  1  0  0  0  0  0  0  0  0  0
   16.3639  -14.2135   21.2708 C   0  0  2  0  0  0  0  0  0  0  0  0
   18.7400  -14.1653   22.9421 C   0  0  1  0  0  0  0  0  0  0  0  0
   17.4947  -14.5480   23.4712 C   0  0  1  0  0  0  0  0  0  0  0  0
   16.3589  -14.5932   22.6168 N   0  0  0  0  0  0  0  0  0  0  0  0
   17.4349  -14.9354   24.6810 N   0  0  0  0  0  0  0  0  0  0  0  0
   15.1098  -14.5162   20.6357 C   0  0  0  0  0  0  0  0  0  0  0  0
   19.6166  -14.5540   23.9931 N   0  0  0  0  0  0  0  0  0  0  0  0
   18.7199  -15.1829   25.0916 C   0  0  1  0  0  0  0  0  0  0  0  0
   19.3798  -15.4361   26.3158 C   0  0  0  0  0  0  0  0  0  0  0  0
   20.3808  -14.5650   26.8824 C   0  0  0  0  0  0  0  0  0  0  0  0
   18.9034  -16.5629   26.9968 C   0  0  0  0  0  0  0  0  0  0  0  0
   14.4359  -13.4460   19.9971 C   0  0  1  0  0  0  0  0  0  0  0  0
   13.6689  -12.5255   20.8334 C   0  0  1  0  0  0  0  0  0  0  0  0
   15.4114  -12.5353   19.1992 N   0  0  0  0  0  0  0  0  0  0  0  0
   16.6026  -13.1478   18.6801 C   0  0  0  0  0  0  0  0  0  0  0  0
   13.3981  -11.2164   20.5722 N   0  0  0  0  0  0  0  0  0  0  0  0
   12.6031  -10.4931   21.4893 C   0  0  0  0  0  0  0  0  0  0  0  0
   12.9808  -12.9978   22.0251 C   0  0  0  0  0  0  0  0  0  0  0  0
   11.9963  -10.9368   22.5843 C   0  0  0  0  0  0  0  0  0  0  0  0
   12.1982  -12.2676   22.8713 C   0  0  0  0  0  0  0  0  0  0  0  0
   11.1712  -10.0894   23.4741 C   0  0  0  0  0  0  0  0  0  0  0  0
   11.4181  -10.1936   24.8880 C   0  0  0  0  0  0  0  0  0  0  0  0
  1  2  1  0
  1  3  1  0
  4  2  1  1
  4  5  1  0
  6  3  1  1
  5  6  1  6
  5  7  1  0
  4  8  1  0
  8  9  1  0
  7 10  1  0
  9 10  1  6
  9 11  1  0
  7 12  1  6
  8 13  1  6
 11 14  1  0
 13 14  1  0
 14 15  1  1
 15 16  1  0
 15 17  1  0
 18 12  1  1
 18 19  1  0
 18 20  1  0
  6 21  1  0
 20 21  1  0
 19 22  1  0
 22 23  1  0
 19 24  1  6
 23 25  1  0
 24 26  1  0
 25 26  1  0
 25 27  1  0
 27 28  1  0
M  END
$$$$
98
     RDKit          3D

 28 32  0  0  0  0  0  0  0  0999 V2000
   20.2241  -13.2645   19.6505 C   0  0  0  0  0  0  0  0  0  0  0  0
   20.0972  -13.4933   20.9511 C   0  0  0  0  0  0  0  0  0  0  0  0
   19.0598  -13.3456   18.8169 C   0  0  0  0  0  0  0  0  0  0  0  0
   18.9054  -13.9393   21.4327 C   0  0  2  0  0  0  0  0  0  0  0  0
   17.6815  -13.8922   20.6529 C   0  0  1  0  0  0  0  0  0  0  0  0
   17.8154  -13.6070   19.2969 C   0  0  0  0  0  0  0  0  0  0  0  0
   16.3639  -14.2135   21.2708 C   0  0  2  0  0  0  0  0  0  0  0  0
   18.7400  -14.1653   22.9421 C   0  0  1  0  0  0  0  0  0  0  0  0
   17.4947  -14.5480   23.4712 C   0  0  1  0  0  0  0  0  0  0  0  0
   16.3589  -14.5932   22.6168 N   0  0  0  0  0  0  0  0  0  0  0  0
   17.4349  -14.9354   24.6810 N   0  0  0  0  0  0  0  0  0  0  0  0
   15.1098  -14.5162   20.6357 C   0  0  0  0  0  0  0  0  0  0  0  0
   19.6166  -14.5540   23.9931 N   0  0  0  0  0  0  0  0  0  0  0  0
   18.7199  -15.1829   25.0916 C   0  0  1  0  0  0  0  0  0  0  0  0
   19.3798  -15.4361   26.3158 C   0  0  0  0  0  0  0  0  0  0  0  0
   20.3808  -14.5650   26.8824 C   0  0  0  0  0  0  0  0  0  0  0  0
   18.9034  -16.5629   26.9968 C   0  0  0  0  0  0  0  0  0  0  0  0
   14.4359  -13.4460   19.9971 C   0  0  1  0  0  0  0  0  0  0  0  0
   13.6689  -12.5255   20.8334 C   0  0  2  0  0  0  0  0  0  0  0  0
   15.4114  -12.5353   19.1992 N   0  0  0  0  0  0  0  0  0  0  0  0
   16.4969  -13.6137   18.5134 C   0  0  0  0  0  0  0  0  0  0  0  0
   12.7489  -13.1041   21.6267 C   0  0  0  0  0  0  0  0  0  0  0  0
   12.3119  -12.3558   22.7194 C   0  0  0  0  0  0  0  0  0  0  0  0
   13.8679  -11.1500   20.7162 C   0  0  0  0  0  0  0  0  0  0  0  0
   12.3788  -10.9744   22.6091 C   0  0  1  0  0  0  0  0  0  0  0  0
   11.6890  -10.1091   23.6838 C   0  0  0  0  0  0  0  0  0  0  0  0
   13.1803  -10.3539   21.7131 C   0  0  0  0  0  0  0  0  0  0  0  0
   10.9527  -10.7292   24.6381 N   0  0  0  0  0  0  0  0  0  0  0  0
  1  2  1  0
  1  3  1  0
  4  2  1  1
  4  5  1  0
  3  6  1  0
  5  6  1  6
  5  7  1  0
  4  8  1  0
  8  9  1  0
  7 10  1  0
  9 10  1  6
  9 11  1  0
  7 12  1  6
  8 13  1  6
 11 14  1  0
 13 14  1  0
 14 15  1  1
 15 16  1  0
 15 17  1  0
 18 12  1  1
 18 19  1  0
 18 20  1  0
  6 21  1  0
 20 21  1  0
 19 22  1  6
 22 23  1  0
 19 24  1  0
 23 25  1  0
 25 26  1  1
 24 27  1  0
 25 27  1  0
 26 28  1  0
M  END
$$$$
99
     RDKit          3D

 28 33  0  0  0  0  0  0  0  0999 V2000
   14.9095  -12.2473   17.3962 C   0  0  2  0  0  0  0  0  0  0  0  0
   14.0706  -12.2957   18.1947 N   0  0  0  0  0  0  0  0  0  0  0  0
   16.2463  -12.7868   17.7363 C   0  0  0  0  0  0  0  0  0  0  0  0
   16.1606  -13.2094   19.0530 C   0  0  2  0  0  0  0  0  0  0  0  0
   14.7735  -11.5162   16.0879 N   0  0  0  0  0  0  0  0  0  0  0  0
   17.1803  -13.8818   19.8648 C   0  0  2  0  0  0  0  0  0  0  0  0
   14.8108  -12.9766   19.4967 C   0  0  2  0  0  0  0  0  0  0  0  0
   13.8372  -13.2442   20.5775 C   0  0  2  0  0  0  0  0  0  0  0  0
   13.1141  -12.2515   21.1219 C   0  0  0  0  0  0  0  0  0  0  0  0
   13.8977  -14.5024   21.1344 C   0  0  2  0  0  0  0  0  0  0  0  0
   14.6683  -15.5944   20.6262 O   0  0  0  0  0  0  0  0  0  0  0  0
   17.0242  -14.8637   20.6649 N   0  0  0  0  0  0  0  0  0  0  0  0
   15.8312  -15.7747   21.0078 C   0  0  1  0  0  0  0  0  0  0  0  0
   16.3978  -16.5369   22.2158 C   0  0  0  0  0  0  0  0  0  0  0  0
   18.1597  -15.4049   21.4879 C   0  0  1  0  0  0  0  0  0  0  0  0
   18.5031  -13.1985   19.7208 C   0  0  0  0  0  0  0  0  0  0  0  0
   19.6679  -13.7003   20.3781 C   0  0  1  0  0  0  0  0  0  0  0  0
   20.8919  -13.0793   20.1820 C   0  0  0  0  0  0  0  0  0  0  0  0
   13.1982  -10.7857   20.7416 N   0  0  0  0  0  0  0  0  0  0  0  0
   12.1561  -12.4562   22.1441 C   0  0  2  0  0  0  0  0  0  0  0  0
   11.5306  -11.3944   22.7037 C   0  0  2  0  0  0  0  0  0  0  0  0
   12.8355  -14.7698   22.0511 C   0  0  0  0  0  0  0  0  0  0  0  0
   19.4177  -14.7034   21.3352 C   0  0  0  0  0  0  0  0  0  0  0  0
   12.0291  -13.7768   22.5680 C   0  0  0  0  0  0  0  0  0  0  0  0
   12.2700  -10.1377   21.5826 C   0  0  0  0  0  0  0  0  0  0  0  0
   17.6923  -16.3811   22.2965 N   0  0  0  0  0  0  0  0  0  0  0  0
   10.7357  -11.1167   23.6815 C   0  0  0  0  0  0  0  0  0  0  0  0
   11.0960  -10.1307   24.6526 N   0  0  0  0  0  0  0  0  0  0  0  0
  1  2  1  0
  1  3  1  0
  4  3  1  6
  1  5  1  1
  4  6  1  0
  7  2  1  6
  4  7  1  0
  7  8  1  0
  8  9  1  1
  8 10  1  0
 10 11  1  0
  6 12  1  0
 11 13  1  0
 12 13  1  0
 13 14  1  1
 12 15  1  0
  6 16  1  1
 16 17  1  0
 17 18  1  1
  9 19  1  0
  9 20  1  0
 20 21  1  0
 10 22  1  6
 15 23  1  1
 17 23  1  0
 20 24  1  1
 22 24  1  0
 19 25  1  0
 21 25  1  0
 14 26  1  0
 15 26  1  0
 21 27  1  1
 27 28  1  0
M  END
$$$$
