0
     RDKit          3D

 12 13  0  0  0  0  0  0  0  0999 V2000
   36.0314   33.4808   30.8148 N   0  0  0  0  0  0  0  0  0  0  0  0
   35.9256   33.8213   31.9907 C   0  0  1  0  0  0  0  0  0  0  0  0
   37.0090   33.7441   30.0039 C   0  0  1  0  0  0  0  0  0  0  0  0
   36.6150   34.9838   32.4971 N   0  0  0  0  0  0  0  0  0  0  0  0
   37.2145   33.3779   28.7692 N   0  0  0  0  0  0  0  0  0  0  0  0
   37.8471   34.9181   30.4848 C   0  0  2  0  0  0  0  0  0  0  0  0
   34.8555   33.3278   32.7945 N   0  0  0  0  0  0  0  0  0  0  0  0
   37.5542   35.5121   31.5932 C   0  0  2  0  0  0  0  0  0  0  0  0
   38.1727   33.7073   27.9143 C   0  0  0  0  0  0  0  0  0  0  0  0
   39.0085   34.7991   28.3269 C   0  0  0  0  0  0  0  0  0  0  0  0
   38.6709   35.4716   29.4616 C   0  0  0  0  0  0  0  0  0  0  0  0
   38.2141   36.6496   32.0750 N   0  0  0  0  0  0  0  0  0  0  0  0
  1  2  1  0
  3  1  1  6
  2  4  1  0
  3  5  1  0
  3  6  1  0
  2  7  1  6
  4  8  1  0
  6  8  1  0
  5  9  1  0
  9 10  1  0
  6 11  1  6
 10 11  1  0
  8 12  1  1
M  END
$$$$
1
     RDKit          3D

 12 13  0  0  0  0  0  0  0  0999 V2000
   35.3652   33.1354   32.5524 C   0  0  0  0  0  0  0  0  0  0  0  0
   35.7090   33.5299   31.2793 C   0  0  0  0  0  0  0  0  0  0  0  0
   36.7559   34.4516   31.0318 C   0  0  1  0  0  0  0  0  0  0  0  0
   37.2765   34.6263   29.7483 C   0  0  1  0  0  0  0  0  0  0  0  0
   37.1813   35.4423   31.9552 C   0  0  0  0  0  0  0  0  0  0  0  0
   38.2809   35.5936   29.4288 C   0  0  2  0  0  0  0  0  0  0  0  0
   37.0748   33.7165   28.6228 N   0  0  0  0  0  0  0  0  0  0  0  0
   38.8419   35.5838   28.2048 C   0  0  0  0  0  0  0  0  0  0  0  0
   38.7623   36.3644   30.2320 N   0  0  0  0  0  0  0  0  0  0  0  0
   38.4252   34.5920   27.2128 C   0  0  0  0  0  0  0  0  0  0  0  0
   38.1718   36.3367   31.6106 C   0  0  0  0  0  0  0  0  0  0  0  0
   37.5295   33.7061   27.5035 C   0  0  0  0  0  0  0  0  0  0  0  0
  1  2  1  0
  3  2  1  6
  3  4  1  0
  3  5  1  0
  4  6  1  0
  4  7  1  1
  6  8  1  1
  6  9  1  0
  8 10  1  0
  5 11  1  0
  9 11  1  0
  7 12  1  0
 10 12  1  0
M  END
$$$$
10
     RDKit          3D

 16 18  0  0  0  0  0  0  0  0999 V2000
   36.0314   33.4808   30.8148 N   0  0  0  0  0  0  0  0  0  0  0  0
   35.9256   33.8213   31.9907 C   0  0  1  0  0  0  0  0  0  0  0  0
   37.0090   33.7441   30.0039 C   0  0  1  0  0  0  0  0  0  0  0  0
   36.6150   34.9838   32.4971 N   0  0  0  0  0  0  0  0  0  0  0  0
   37.2145   33.3779   28.7692 N   0  0  0  0  0  0  0  0  0  0  0  0
   37.8471   34.9181   30.4848 C   0  0  2  0  0  0  0  0  0  0  0  0
   34.8555   33.3278   32.7945 N   0  0  0  0  0  0  0  0  0  0  0  0
   37.5542   35.5121   31.5932 C   0  0  0  0  0  0  0  0  0  0  0  0
   38.1727   33.7073   27.9143 C   0  0  0  0  0  0  0  0  0  0  0  0
   39.0085   34.7991   28.3269 C   0  0  0  0  0  0  0  0  0  0  0  0
   38.7620   35.4686   29.5300 C   0  0  2  0  0  0  0  0  0  0  0  0
   38.1999   36.7416   31.8953 N   0  0  0  0  0  0  0  0  0  0  0  0
   39.5321   36.6177   29.8776 N   0  0  0  0  0  0  0  0  0  0  0  0
   39.1691   37.2322   30.9832 C   0  0  2  0  0  0  0  0  0  0  0  0
   39.9187   38.4142   31.3740 N   0  0  0  0  0  0  0  0  0  0  0  0
   40.8902   38.4014   32.0820 O   0  0  0  0  0  0  0  0  0  0  0  0
  1  2  1  0
  3  1  1  6
  2  4  1  0
  3  5  1  0
  3  6  1  0
  2  7  1  6
  4  8  1  0
  6  8  1  6
  5  9  1  0
  9 10  1  0
  6 11  1  0
 11 10  1  1
  8 12  1  0
 11 13  1  0
 12 14  1  0
 13 14  1  0
 14 15  1  1
 15 16  1  0
M  END
$$$$
100
     RDKit          3D

 22 25  0  0  0  0  0  0  0  0999 V2000
   37.7914   37.3496   33.1079 C   0  0  2  0  0  0  0  0  0  0  0  0
   38.3958   37.3825   31.9755 N   0  0  0  0  0  0  0  0  0  0  0  0
   38.2580   38.2193   34.1317 N   0  0  0  0  0  0  0  0  0  0  0  0
   38.0878   36.6075   31.2316 C   0  0  2  0  0  0  0  0  0  0  0  0
   37.2708   35.4441   31.6053 N   0  0  0  0  0  0  0  0  0  0  0  0
   38.6809   36.3902   29.7975 N   0  0  0  0  0  0  0  0  0  0  0  0
   37.1377   36.0588   33.0796 C   0  0  2  0  0  0  0  0  0  0  0  0
   39.5308   37.3060   29.3040 C   0  0  0  0  0  0  0  0  0  0  0  0
   38.3181   35.2699   28.9693 C   0  0  0  0  0  0  0  0  0  0  0  0
   36.3342   35.1503   33.8210 N   0  0  0  0  0  0  0  0  0  0  0  0
   38.8600   35.4788   27.6346 C   0  0  1  0  0  0  0  0  0  0  0  0
   37.6430   33.9688   28.8956 C   0  0  2  0  0  0  0  0  0  0  0  0
   39.6862   36.7514   27.8763 N   0  0  0  0  0  0  0  0  0  0  0  0
   40.6696   37.3527   26.9446 C   0  0  0  0  0  0  0  0  0  0  0  0
   38.8671   34.8795   26.3866 C   0  0  0  0  0  0  0  0  0  0  0  0
   37.0731   33.4645   30.0755 O   0  0  0  0  0  0  0  0  0  0  0  0
   38.1586   33.6361   26.5093 C   0  0  0  0  0  0  0  0  0  0  0  0
   37.6008   33.1120   27.7473 C   0  0  0  0  0  0  0  0  0  0  0  0
   40.5174   38.6727   26.8137 C   0  0  0  0  0  0  0  0  0  0  0  0
   36.4955   34.4938   30.9393 C   0  0  0  0  0  0  0  0  0  0  0  0
   36.0462   35.8235   35.0000 C   0  0  0  0  0  0  0  0  0  0  0  0
   39.2978   39.2141   26.3413 O   0  0  0  0  0  0  0  0  0  0  0  0
  1  2  1  0
  1  3  1  1
  4  2  1  1
  4  5  1  0
  4  6  1  0
  1  7  1  0
  5  7  1  0
  6  8  1  0
  6  9  1  0
  7 10  1  6
  9 11  1  0
  9 12  1  0
  8 13  1  0
 11 13  1  0
 13 14  1  0
 11 15  1  1
 12 16  1  0
 15 17  1  0
 12 18  1  1
 17 18  1  0
 14 19  1  0
  5 20  1  0
 16 20  1  0
 10 21  1  0
 19 22  1  0
M  END
$$$$
101
     RDKit          3D

 22 24  0  0  0  0  0  0  0  0999 V2000
   36.3001   34.6099   33.5538 N   0  0  0  0  0  0  0  0  0  0  0  0
   36.0855   34.2624   32.2985 C   0  0  2  0  0  0  0  0  0  0  0  0
   36.7086   34.7527   31.3232 N   0  0  0  0  0  0  0  0  0  0  0  0
   37.5392   35.8245   31.6764 C   0  0  1  0  0  0  0  0  0  0  0  0
   37.7544   36.2494   32.9079 C   0  0  2  0  0  0  0  0  0  0  0  0
   34.8570   33.2243   32.1547 C   0  0  0  0  0  0  0  0  0  0  0  0
   36.9828   35.7207   33.7717 C   0  0  0  0  0  0  0  0  0  0  0  0
   38.5668   37.5643   33.1133 C   0  0  1  0  0  0  0  0  0  0  0  0
   38.3763   36.6229   30.7343 C   0  0  0  0  0  0  0  0  0  0  0  0
   38.5956   38.0524   34.4376 O   0  0  0  0  0  0  0  0  0  0  0  0
   39.9058   38.4510   34.8567 C   0  0  0  0  0  0  0  0  0  0  0  0
   39.1660   38.0374   32.0959 C   0  0  0  0  0  0  0  0  0  0  0  0
   39.1366   37.5472   30.8742 C   0  0  2  0  0  0  0  0  0  0  0  0
   39.8003   38.0157   29.6422 N   0  0  0  0  0  0  0  0  0  0  0  0
   40.2765   39.3519   29.5467 C   0  0  0  0  0  0  0  0  0  0  0  0
   40.2813   37.2798   28.6244 C   0  0  0  0  0  0  0  0  0  0  0  0
   41.1241   39.5731   28.4588 C   0  0  1  0  0  0  0  0  0  0  0  0
   41.0589   38.2245   27.7321 C   0  0  0  0  0  0  0  0  0  0  0  0
   40.5823   40.5255   27.3732 N   0  0  0  0  0  0  0  0  0  0  0  0
   39.3229   40.6235   27.1315 C   0  0  0  0  0  0  0  0  0  0  0  0
   38.4641   40.7812   28.0470 O   0  0  0  0  0  0  0  0  0  0  0  0
   38.8989   41.0284   25.8395 C   0  0  0  0  0  0  0  0  0  0  0  0
  1  2  1  0
  2  3  1  0
  3  4  1  0
  4  5  1  0
  2  6  1  6
  1  7  1  0
  5  7  1  6
  5  8  1  0
  4  9  1  1
  8 10  1  1
 10 11  1  0
  8 12  1  0
  9 13  1  0
 12 13  1  0
 13 14  1  6
 14 15  1  0
 14 16  1  0
 15 17  1  0
 16 18  1  0
 17 18  1  0
 17 19  1  6
 19 20  1  0
 20 21  2  0
 20 22  1  0
M  END
$$$$
102
     RDKit          3D

 22 24  0  0  0  0  0  0  0  0999 V2000
   36.0314   33.4808   30.8148 C   0  0  0  0  0  0  0  0  0  0  0  0
   36.1755   34.0005   32.0158 C   0  0  0  0  0  0  0  0  0  0  0  0
   36.8910   35.1675   32.2236 C   0  0  0  0  0  0  0  0  0  0  0  0
   37.0706   33.9932   29.9054 C   0  0  2  0  0  0  0  0  0  0  0  0
   37.8325   35.0803   30.0836 C   0  0  1  0  0  0  0  0  0  0  0  0
   37.1755   33.2421   28.5761 N   0  0  0  0  0  0  0  0  0  0  0  0
   37.7875   35.6413   31.3370 C   0  0  0  0  0  0  0  0  0  0  0  0
   38.7525   35.4666   29.0094 C   0  0  1  0  0  0  0  0  0  0  0  0
   37.9296   33.7942   27.6339 C   0  0  1  0  0  0  0  0  0  0  0  0
   38.6260   34.6966   27.7256 C   0  0  2  0  0  0  0  0  0  0  0  0
   39.4098   36.6969   29.0772 N   0  0  0  0  0  0  0  0  0  0  0  0
   39.7304   37.2989   28.0989 C   0  0  1  0  0  0  0  0  0  0  0  0
   39.6229   35.2122   26.6553 C   0  0  0  0  0  0  0  0  0  0  0  0
   37.8408   32.9386   26.3405 C   0  0  0  0  0  0  0  0  0  0  0  0
   40.4618   38.5329   28.1126 C   0  0  0  0  0  0  0  0  0  0  0  0
   40.2900   36.4338   26.9010 C   0  0  0  0  0  0  0  0  0  0  0  0
   41.2063   38.9116   29.0240 O   0  0  0  0  0  0  0  0  0  0  0  0
   39.8788   39.6412   27.4557 N   0  0  0  0  0  0  0  0  0  0  0  0
   40.4178   41.0111   27.4492 C   0  0  0  0  0  0  0  0  0  0  0  0
   39.2794   39.4920   26.1596 O   0  0  0  0  0  0  0  0  0  0  0  0
   39.4517   41.9823   27.0651 C   0  0  0  0  0  0  0  0  0  0  0  0
   38.2523   41.8798   27.9187 O   0  0  0  0  0  0  0  0  0  0  0  0
  1  2  1  0
  2  3  1  0
  4  1  1  6
  4  5  1  0
  4  6  1  0
  3  7  1  0
  5  7  1  1
  5  8  1  0
  6  9  1  0
  8 10  1  0
  9 10  1  0
  8 11  1  6
 11 12  1  0
 10 13  1  1
  9 14  1  1
 12 15  1  1
 12 16  1  0
 13 16  1  0
 15 17  2  0
 15 18  1  0
 18 19  1  0
 18 20  1  0
 19 21  1  0
 21 22  1  0
M  END
$$$$
103
     RDKit          3D

 22 26  0  0  0  0  0  0  0  0999 V2000
   37.7914   37.3496   33.1079 C   0  0  2  0  0  0  0  0  0  0  0  0
   38.3958   37.3825   31.9755 N   0  0  0  0  0  0  0  0  0  0  0  0
   38.2580   38.2193   34.1317 N   0  0  0  0  0  0  0  0  0  0  0  0
   38.0878   36.6075   31.2316 C   0  0  1  0  0  0  0  0  0  0  0  0
   37.1533   36.1784   33.5308 N   0  0  0  0  0  0  0  0  0  0  0  0
   36.6252   36.0605   34.8434 C   0  0  0  0  0  0  0  0  0  0  0  0
   37.0782   36.9842   35.8220 N   0  0  0  0  0  0  0  0  0  0  0  0
   37.8775   37.9401   35.4344 C   0  0  0  0  0  0  0  0  0  0  0  0
   38.6483   36.5061   29.8235 N   0  0  0  0  0  0  0  0  0  0  0  0
   37.0678   35.5180   32.4271 C   0  0  2  0  0  0  0  0  0  0  0  0
   37.2946   35.4967   31.3508 C   0  0  2  0  0  0  0  0  0  0  0  0
   37.1277   34.5289   30.2257 C   0  0  0  0  0  0  0  0  0  0  0  0
   38.0300   34.8551   29.2531 C   0  0  1  0  0  0  0  0  0  0  0  0
   38.1469   34.7445   27.9238 C   0  0  0  0  0  0  0  0  0  0  0  0
   38.9782   35.4912   27.1060 C   0  0  1  0  0  0  0  0  0  0  0  0
   39.5137   36.7831   27.6853 C   0  0  0  0  0  0  0  0  0  0  0  0
   39.3310   37.0025   28.9955 C   0  0  0  0  0  0  0  0  0  0  0  0
   35.8110   34.3750   33.0662 C   0  0  0  0  0  0  0  0  0  0  0  0
   35.7092   35.0596   34.9215 C   0  0  0  0  0  0  0  0  0  0  0  0
   37.2551   33.7368   27.2976 O   0  0  0  0  0  0  0  0  0  0  0  0
   35.4197   34.2782   33.9625 C   0  0  0  0  0  0  0  0  0  0  0  0
   39.4538   35.0015   25.8263 C   0  0  0  0  0  0  0  0  0  0  0  0
  1  2  1  6
  1  3  1  0
  4  2  1  1
  1  5  1  0
  5  6  1  0
  6  7  1  0
  3  8  1  0
  7  8  1  0
  4  9  1  0
  5 10  1  0
  4 11  1  0
 10 11  1  0
 11 12  1  1
  9 13  1  0
 13 12  1  6
 13 14  1  0
 14 15  1  0
 15 16  1  0
  9 17  1  0
 16 17  1  0
 10 18  1  6
  6 19  1  0
 14 20  1  0
 18 21  1  0
 19 21  1  0
 15 22  1  1
M  END
$$$$
104
     RDKit          3D

 22 25  0  0  0  0  0  0  0  0999 V2000
   36.3367   35.0125   33.4818 C   0  0  0  0  0  0  0  0  0  0  0  0
   35.9160   34.1370   32.6178 N   0  0  0  0  0  0  0  0  0  0  0  0
   37.0552   36.0595   32.9097 C   0  0  0  0  0  0  0  0  0  0  0  0
   36.3211   34.0249   31.3333 C   0  0  0  0  0  0  0  0  0  0  0  0
   37.4700   35.7893   31.6440 C   0  0  0  0  0  0  0  0  0  0  0  0
   35.8239   32.9311   30.5123 N   0  0  0  0  0  0  0  0  0  0  0  0
   37.1023   34.8588   30.9473 C   0  0  0  0  0  0  0  0  0  0  0  0
   38.5228   36.9095   31.1384 C   0  0  2  0  0  0  0  0  0  0  0  0
   37.8096   35.0600   29.5667 C   0  0  0  0  0  0  0  0  0  0  0  0
   38.9782   37.8860   31.8828 N   0  0  0  0  0  0  0  0  0  0  0  0
   39.0344   39.0821   31.6520 C   0  0  0  0  0  0  0  0  0  0  0  0
   38.8395   39.6708   30.4093 C   0  0  2  0  0  0  0  0  0  0  0  0
   38.9468   38.6353   29.2847 C   0  0  0  0  0  0  0  0  0  0  0  0
   38.7303   41.0977   30.0284 C   0  0  2  0  0  0  0  0  0  0  0  0
   39.2727   41.8863   30.8181 O   0  0  0  0  0  0  0  0  0  0  0  0
   39.1468   39.0158   28.0002 C   0  0  0  0  0  0  0  0  0  0  0  0
   38.0204   41.4870   29.0637 O   0  0  0  0  0  0  0  0  0  0  0  0
   38.7792   37.3033   29.7630 C   0  0  2  0  0  0  0  0  0  0  0  0
   38.9000   40.1224   27.4302 C   0  0  0  0  0  0  0  0  0  0  0  0
   38.4196   41.3572   27.7767 C   0  0  0  0  0  0  0  0  0  0  0  0
   38.3479   42.4364   26.9659 O   0  0  0  0  0  0  0  0  0  0  0  0
   38.5288   35.9061   29.1619 C   0  0  0  0  0  0  0  0  0  0  0  0
  1  2  1  0
  1  3  1  0
  2  4  1  0
  3  5  1  0
  4  6  1  0
  4  7  1  0
  5  7  1  0
  5  8  1  0
  7  9  1  0
  8 10  1  1
 10 11  1  0
 12 11  1  1
 12 13  1  0
 12 14  1  0
 14 15  1  1
 13 16  1  0
 14 17  1  0
  8 18  1  0
 13 18  1  0
 16 19  1  0
 17 20  1  0
 19 20  1  0
 20 21  1  0
  9 22  1  0
 18 22  1  6
M  END
$$$$
105
     RDKit          3D

 22 24  0  0  0  0  0  0  0  0999 V2000
   37.7914   37.3496   33.1079 N   0  0  0  0  0  0  0  0  0  0  0  0
   37.3197   36.2436   33.1024 C   0  0  2  0  0  0  0  0  0  0  0  0
   38.6881   37.6061   32.0925 C   0  0  2  0  0  0  0  0  0  0  0  0
   39.4228   38.7085   31.9217 N   0  0  0  0  0  0  0  0  0  0  0  0
   38.6762   36.7481   30.8880 C   0  0  0  0  0  0  0  0  0  0  0  0
   39.5943   39.7047   32.9058 C   0  0  0  0  0  0  0  0  0  0  0  0
   39.4268   37.0164   29.8340 N   0  0  0  0  0  0  0  0  0  0  0  0
   37.1648   35.2932   32.0171 N   0  0  0  0  0  0  0  0  0  0  0  0
   39.7349   39.0207   30.6157 C   0  0  1  0  0  0  0  0  0  0  0  0
   36.3913   34.1195   32.0663 C   0  0  0  0  0  0  0  0  0  0  0  0
   40.3443   40.3938   30.4523 O   0  0  0  0  0  0  0  0  0  0  0  0
   37.8032   35.6376   30.9580 C   0  0  2  0  0  0  0  0  0  0  0  0
   37.6373   34.6783   29.9639 N   0  0  0  0  0  0  0  0  0  0  0  0
   36.5187   36.0500   34.4563 N   0  0  0  0  0  0  0  0  0  0  0  0
   39.5146   41.3737   30.4863 C   0  0  0  0  0  0  0  0  0  0  0  0
   36.6646   33.8285   30.6107 C   0  0  0  0  0  0  0  0  0  0  0  0
   39.8947   38.0559   29.6941 C   0  0  0  0  0  0  0  0  0  0  0  0
   35.5317   33.6295   32.8186 C   0  0  0  0  0  0  0  0  0  0  0  0
   38.5331   41.4449   29.3823 C   0  0  0  0  0  0  0  0  0  0  0  0
   37.4126   41.0366   29.5385 O   0  0  0  0  0  0  0  0  0  0  0  0
   38.8889   42.2334   28.3593 O   0  0  0  0  0  0  0  0  0  0  0  0
   38.6733   41.4684   27.0398 C   0  0  0  0  0  0  0  0  0  0  0  0
  1  2  1  0
  3  1  1  6
  3  4  1  0
  3  5  1  0
  4  6  1  0
  5  7  1  0
  2  8  1  0
  4  9  1  0
  8 10  1  0
  9 11  1  1
  5 12  1  0
  8 12  1  0
 12 13  1  1
  2 14  1  6
 11 15  1  0
 10 16  1  0
 13 16  1  0
  7 17  1  0
  9 17  1  0
 10 18  2  0
 15 19  1  0
 19 20  2  0
 19 21  1  0
 21 22  1  0
M  END
$$$$
106
     RDKit          3D

 22 26  0  0  0  0  0  0  0  0999 V2000
   35.6127   33.7004   32.8725 C   0  0  0  0  0  0  0  0  0  0  0  0
   36.4362   34.7897   33.1048 C   0  0  2  0  0  0  0  0  0  0  0  0
   36.5326   35.4407   34.2825 C   0  0  0  0  0  0  0  0  0  0  0  0
   35.5243   33.1469   31.5441 C   0  0  0  0  0  0  0  0  0  0  0  0
   37.2220   36.7188   34.3441 C   0  0  1  0  0  0  0  0  0  0  0  0
   36.2149   33.7054   30.4900 C   0  0  1  0  0  0  0  0  0  0  0  0
   37.1261   34.7874   30.7658 C   0  0  2  0  0  0  0  0  0  0  0  0
   37.5353   37.3577   35.5713 O   0  0  0  0  0  0  0  0  0  0  0  0
   38.1285   37.0071   33.2298 C   0  0  2  0  0  0  0  0  0  0  0  0
   38.8586   38.2450   33.2819 N   0  0  0  0  0  0  0  0  0  0  0  0
   39.7798   38.5975   32.4446 C   0  0  1  0  0  0  0  0  0  0  0  0
   37.2184   35.4321   31.9828 C   0  0  1  0  0  0  0  0  0  0  0  0
   37.8846   36.5284   32.0866 N   0  0  0  0  0  0  0  0  0  0  0  0
   37.8356   35.2575   29.6200 C   0  0  1  0  0  0  0  0  0  0  0  0
   38.7487   36.3603   29.7456 C   0  0  0  0  0  0  0  0  0  0  0  0
   37.8907   34.4939   28.4175 N   0  0  0  0  0  0  0  0  0  0  0  0
   37.1712   33.4293   28.2586 C   0  0  0  0  0  0  0  0  0  0  0  0
   38.6805   37.1057   31.0106 C   0  0  2  0  0  0  0  0  0  0  0  0
   39.5603   38.1003   31.1538 N   0  0  0  0  0  0  0  0  0  0  0  0
   36.4027   33.0031   29.2768 N   0  0  0  0  0  0  0  0  0  0  0  0
   37.2563   32.7243   26.9223 C   0  0  0  0  0  0  0  0  0  0  0  0
   40.7480   39.6828   32.6943 C   0  0  0  0  0  0  0  0  0  0  0  0
  2  1  1  6
  2  3  1  0
  1  4  1  0
  3  5  1  0
  6  4  1  1
  7  6  1  6
  5  8  1  1
  5  9  1  0
  9 10  1  6
 10 11  1  0
  2 12  1  0
  7 12  1  0
  9 13  1  0
 12 13  1  6
  7 14  1  0
 14 15  1  1
 14 16  1  0
 16 17  1  0
 13 18  1  0
 18 15  1  1
 11 19  1  0
 18 19  1  0
  6 20  1  0
 17 20  1  0
 17 21  1  0
 11 22  1  6
M  END
$$$$
107
     RDKit          3D

 22 24  0  0  0  0  0  0  0  0999 V2000
   37.7914   37.3496   33.1079 N   0  0  0  0  0  0  0  0  0  0  0  0
   37.3197   36.2436   33.1024 C   0  0  2  0  0  0  0  0  0  0  0  0
   38.6881   37.6061   32.0925 C   0  0  2  0  0  0  0  0  0  0  0  0
   39.4228   38.7085   31.9217 N   0  0  0  0  0  0  0  0  0  0  0  0
   38.6762   36.7481   30.8880 C   0  0  0  0  0  0  0  0  0  0  0  0
   39.5943   39.7047   32.9058 C   0  0  0  0  0  0  0  0  0  0  0  0
   39.4268   37.0164   29.8340 N   0  0  0  0  0  0  0  0  0  0  0  0
   37.1648   35.2932   32.0171 N   0  0  0  0  0  0  0  0  0  0  0  0
   39.7349   39.0207   30.6157 C   0  0  1  0  0  0  0  0  0  0  0  0
   36.3913   34.1195   32.0663 C   0  0  0  0  0  0  0  0  0  0  0  0
   40.3443   40.3938   30.4523 O   0  0  0  0  0  0  0  0  0  0  0  0
   36.2796   33.5493   30.8330 C   0  0  0  0  0  0  0  0  0  0  0  0
   39.5570   41.2473   29.6629 C   0  0  0  0  0  0  0  0  0  0  0  0
   37.7719   35.5836   30.9266 C   0  0  2  0  0  0  0  0  0  0  0  0
   38.3791   40.6963   29.1525 C   0  0  0  0  0  0  0  0  0  0  0  0
   36.5179   36.0061   34.2995 N   0  0  0  0  0  0  0  0  0  0  0  0
   37.3816   34.4815   30.1261 C   0  0  2  0  0  0  0  0  0  0  0  0
   40.0766   38.2635   29.5956 C   0  0  0  0  0  0  0  0  0  0  0  0
   37.6843   34.1535   28.6851 C   0  0  0  0  0  0  0  0  0  0  0  0
   37.9838   41.3386   27.9421 O   0  0  0  0  0  0  0  0  0  0  0  0
   37.4409   32.9770   28.2852 O   0  0  0  0  0  0  0  0  0  0  0  0
   38.3299   35.0333   28.0241 O   0  0  0  0  0  0  0  0  0  0  0  0
  1  2  1  0
  3  1  1  6
  3  4  1  0
  3  5  1  0
  4  6  1  0
  5  7  1  0
  2  8  1  0
  4  9  1  0
  8 10  1  0
  9 11  1  1
 10 12  1  0
 11 13  1  0
 14  5  1  1
  8 14  1  0
 13 15  1  0
  2 16  1  6
 12 17  1  0
 14 17  1  0
  7 18  1  0
  9 18  1  0
 17 19  1  6
 15 20  1  0
 19 21  2  0
 19 22  1  0
M  END
$$$$
108
     RDKit          3D

 22 26  0  0  0  0  0  0  0  0999 V2000
   35.6127   33.7004   32.8725 C   0  0  0  0  0  0  0  0  0  0  0  0
   36.4362   34.7897   33.1048 C   0  0  2  0  0  0  0  0  0  0  0  0
   36.5326   35.4407   34.2825 C   0  0  0  0  0  0  0  0  0  0  0  0
   35.5243   33.1469   31.5441 C   0  0  0  0  0  0  0  0  0  0  0  0
   36.2097   33.7026   30.4961 C   0  0  0  0  0  0  0  0  0  0  0  0
   37.1444   35.3731   31.8863 C   0  0  1  0  0  0  0  0  0  0  0  0
   37.0431   34.8127   30.6920 C   0  0  0  0  0  0  0  0  0  0  0  0
   37.8153   35.3607   29.6505 N   0  0  0  0  0  0  0  0  0  0  0  0
   38.1467   34.8383   28.5147 C   0  0  0  0  0  0  0  0  0  0  0  0
   37.1792   36.7500   34.3310 C   0  0  0  0  0  0  0  0  0  0  0  0
   37.8523   36.6877   32.2792 C   0  0  1  0  0  0  0  0  0  0  0  0
   37.8759   33.5827   28.1973 O   0  0  0  0  0  0  0  0  0  0  0  0
   37.8517   37.2399   33.4393 C   0  0  0  0  0  0  0  0  0  0  0  0
   38.9600   35.5619   27.4720 C   0  0  2  0  0  0  0  0  0  0  0  0
   39.5852   36.7807   27.9554 C   0  0  1  0  0  0  0  0  0  0  0  0
   38.8719   35.1244   26.1739 C   0  0  0  0  0  0  0  0  0  0  0  0
   39.6831   37.2295   29.2702 C   0  0  0  0  0  0  0  0  0  0  0  0
   38.5424   36.5731   30.1827 C   0  0  2  0  0  0  0  0  0  0  0  0
   38.6507   37.2866   31.2124 N   0  0  0  0  0  0  0  0  0  0  0  0
   40.4906   37.4846   26.9253 C   0  0  0  0  0  0  0  0  0  0  0  0
   40.4142   36.9769   25.5848 C   0  0  0  0  0  0  0  0  0  0  0  0
   39.5645   35.9478   25.3177 N   0  0  0  0  0  0  0  0  0  0  0  0
  2  1  1  6
  2  3  1  0
  1  4  1  0
  4  5  1  0
  2  6  1  0
  5  7  1  0
  6  7  1  6
  7  8  1  0
  8  9  1  0
  3 10  1  0
  6 11  1  0
  9 12  2  0
 10 13  1  0
 11 13  1  1
  9 14  1  0
 14 15  1  0
 14 16  1  6
 15 17  1  1
  8 18  1  0
 18 17  1  1
 11 19  1  0
 18 19  1  0
 15 20  1  0
 20 21  1  0
 16 22  1  0
 21 22  1  0
M  END
$$$$
109
     RDKit          3D

 22 26  0  0  0  0  0  0  0  0999 V2000
   35.5247   33.4398   32.8856 C   0  0  0  0  0  0  0  0  0  0  0  0
   35.5784   33.4754   31.5143 C   0  0  0  0  0  0  0  0  0  0  0  0
   36.8123   34.0651   31.0476 C   0  0  1  0  0  0  0  0  0  0  0  0
   36.9795   34.0849   29.5649 C   0  0  2  0  0  0  0  0  0  0  0  0
   36.0261   34.6804   33.2378 C   0  0  0  0  0  0  0  0  0  0  0  0
   37.2401   35.3172   31.5910 C   0  0  1  0  0  0  0  0  0  0  0  0
   36.9701   35.4750   32.8801 C   0  0  0  0  0  0  0  0  0  0  0  0
   38.0779   35.9894   30.6187 C   0  0  2  0  0  0  0  0  0  0  0  0
   37.0053   33.0298   28.7206 N   0  0  0  0  0  0  0  0  0  0  0  0
   38.0572   35.1286   29.4379 C   0  0  2  0  0  0  0  0  0  0  0  0
   37.7651   32.9526   27.6594 C   0  0  0  0  0  0  0  0  0  0  0  0
   38.6493   33.9910   27.3279 C   0  0  0  0  0  0  0  0  0  0  0  0
   38.9571   36.9952   30.7374 C   0  0  2  0  0  0  0  0  0  0  0  0
   38.8922   35.3365   28.2617 C   0  0  2  0  0  0  0  0  0  0  0  0
   39.0146   37.9082   31.7687 C   0  0  0  0  0  0  0  0  0  0  0  0
   39.8834   38.9019   31.8385 C   0  0  2  0  0  0  0  0  0  0  0  0
   39.9533   39.7658   32.9535 O   0  0  0  0  0  0  0  0  0  0  0  0
   39.9729   37.4679   29.6865 C   0  0  1  0  0  0  0  0  0  0  0  0
   39.7592   36.0474   28.0178 C   0  0  0  0  0  0  0  0  0  0  0  0
   40.2267   37.0597   28.4647 C   0  0  0  0  0  0  0  0  0  0  0  0
   40.3955   39.2413   34.1256 C   0  0  0  0  0  0  0  0  0  0  0  0
   40.6411   39.0334   30.5639 C   0  0  0  0  0  0  0  0  0  0  0  0
  1  2  1  0
  3  2  1  6
  3  4  1  0
  1  5  1  0
  3  6  1  0
  5  7  1  0
  6  7  1  1
  8  6  1  1
  4  9  1  1
  4 10  1  0
  8 10  1  0
  9 11  1  0
 11 12  1  0
  8 13  1  0
 10 14  1  6
 14 12  1  1
 13 15  1  6
 15 16  1  0
 16 17  1  6
 13 18  1  0
 14 19  1  0
 18 20  1  6
 19 20  1  0
 17 21  1  0
 16 22  1  0
 18 22  1  0
M  END
$$$$
11
     RDKit          3D

 16 19  0  0  0  0  0  0  0  0999 V2000
   37.7914   37.3496   33.1079 C   0  0  0  0  0  0  0  0  0  0  0  0
   37.2353   36.2486   33.3076 N   0  0  0  0  0  0  0  0  0  0  0  0
   38.5078   37.3702   31.9748 N   0  0  0  0  0  0  0  0  0  0  0  0
   38.0358   36.2015   31.2851 C   0  0  1  0  0  0  0  0  0  0  0  0
   38.3714   35.8014   30.0236 C   0  0  2  0  0  0  0  0  0  0  0  0
   39.2701   36.5581   29.1708 N   0  0  0  0  0  0  0  0  0  0  0  0
   37.2186   35.4890   32.2125 C   0  0  2  0  0  0  0  0  0  0  0  0
   37.6636   34.6961   29.4988 N   0  0  0  0  0  0  0  0  0  0  0  0
   39.1958   35.8741   27.9160 C   0  0  1  0  0  0  0  0  0  0  0  0
   39.9152   36.1133   26.7532 C   0  0  0  0  0  0  0  0  0  0  0  0
   36.9103   33.8656   30.1262 C   0  0  0  0  0  0  0  0  0  0  0  0
   38.3056   34.6035   28.0055 C   0  0  2  0  0  0  0  0  0  0  0  0
   36.6370   34.3628   31.5460 N   0  0  0  0  0  0  0  0  0  0  0  0
   38.0228   33.6758   27.1234 C   0  0  0  0  0  0  0  0  0  0  0  0
   38.6615   34.0204   25.8771 C   0  0  0  0  0  0  0  0  0  0  0  0
   39.4662   35.2179   25.7211 C   0  0  0  0  0  0  0  0  0  0  0  0
  1  2  1  0
  1  3  1  0
  4  3  1  1
  4  5  1  0
  5  6  1  6
  7  2  1  6
  4  7  1  0
  5  8  1  0
  6  9  1  0
  9 10  1  1
  8 11  1  0
  8 12  1  0
  9 12  1  0
  7 13  1  0
 11 13  1  0
 12 14  1  6
 14 15  1  0
 10 16  1  0
 15 16  1  0
M  END
$$$$
110
     RDKit          3D

 22 26  0  0  0  0  0  0  0  0999 V2000
   35.5247   33.4398   32.8856 C   0  0  0  0  0  0  0  0  0  0  0  0
   35.5784   33.4754   31.5143 C   0  0  0  0  0  0  0  0  0  0  0  0
   36.8123   34.0651   31.0476 C   0  0  1  0  0  0  0  0  0  0  0  0
   36.9795   34.0849   29.5649 C   0  0  2  0  0  0  0  0  0  0  0  0
   36.0261   34.6804   33.2378 C   0  0  0  0  0  0  0  0  0  0  0  0
   37.2401   35.3172   31.5910 C   0  0  1  0  0  0  0  0  0  0  0  0
   36.9701   35.4750   32.8801 C   0  0  0  0  0  0  0  0  0  0  0  0
   38.0779   35.9894   30.6187 C   0  0  2  0  0  0  0  0  0  0  0  0
   37.0053   33.0298   28.7206 N   0  0  0  0  0  0  0  0  0  0  0  0
   38.0572   35.1286   29.4379 C   0  0  2  0  0  0  0  0  0  0  0  0
   37.7651   32.9526   27.6594 C   0  0  0  0  0  0  0  0  0  0  0  0
   38.6493   33.9910   27.3279 C   0  0  0  0  0  0  0  0  0  0  0  0
   38.9571   36.9952   30.7374 C   0  0  2  0  0  0  0  0  0  0  0  0
   38.8922   35.3365   28.2617 C   0  0  2  0  0  0  0  0  0  0  0  0
   39.0146   37.9082   31.7687 C   0  0  0  0  0  0  0  0  0  0  0  0
   39.8834   38.9019   31.8385 C   0  0  1  0  0  0  0  0  0  0  0  0
   39.9533   39.7658   32.9535 O   0  0  0  0  0  0  0  0  0  0  0  0
   39.9729   37.4679   29.6865 C   0  0  0  0  0  0  0  0  0  0  0  0
   40.8655   39.0364   30.8435 C   0  0  0  0  0  0  0  0  0  0  0  0
   40.1371   39.3054   34.1748 C   0  0  0  0  0  0  0  0  0  0  0  0
   40.7593   38.2680   29.7256 C   0  0  0  0  0  0  0  0  0  0  0  0
   39.6353   36.4858   28.4592 C   0  0  0  0  0  0  0  0  0  0  0  0
  1  2  1  0
  3  2  1  6
  3  4  1  0
  1  5  1  0
  3  6  1  0
  5  7  1  0
  6  7  1  1
  6  8  1  0
  4  9  1  1
  4 10  1  0
  8 10  1  0
  9 11  1  0
 11 12  1  0
  8 13  1  1
 10 14  1  6
 14 12  1  1
 13 15  1  6
 15 16  1  0
 16 17  1  1
 13 18  1  0
 16 19  1  0
 17 20  1  0
 18 21  1  0
 19 21  1  0
 14 22  1  0
 18 22  1  0
M  END
$$$$
111
     RDKit          3D

 22 25  0  0  0  0  0  0  0  0999 V2000
   36.3367   35.0125   33.4818 C   0  0  0  0  0  0  0  0  0  0  0  0
   35.9160   34.1370   32.6178 N   0  0  0  0  0  0  0  0  0  0  0  0
   37.0552   36.0595   32.9097 C   0  0  0  0  0  0  0  0  0  0  0  0
   36.3211   34.0249   31.3333 C   0  0  0  0  0  0  0  0  0  0  0  0
   37.4700   35.7893   31.6440 C   0  0  0  0  0  0  0  0  0  0  0  0
   35.8239   32.9311   30.5123 N   0  0  0  0  0  0  0  0  0  0  0  0
   37.1023   34.8588   30.9473 C   0  0  0  0  0  0  0  0  0  0  0  0
   38.5228   36.9095   31.1384 C   0  0  1  0  0  0  0  0  0  0  0  0
   37.8096   35.0600   29.5667 C   0  0  2  0  0  0  0  0  0  0  0  0
   38.9782   37.8860   31.8828 N   0  0  0  0  0  0  0  0  0  0  0  0
   39.0344   39.0821   31.6520 C   0  0  0  0  0  0  0  0  0  0  0  0
   38.8395   39.6708   30.4093 C   0  0  2  0  0  0  0  0  0  0  0  0
   38.9468   38.6353   29.2847 C   0  0  2  0  0  0  0  0  0  0  0  0
   38.7303   41.0977   30.0284 C   0  0  0  0  0  0  0  0  0  0  0  0
   37.9115   34.2728   28.5603 C   0  0  0  0  0  0  0  0  0  0  0  0
   38.6519   36.2977   29.8811 N   0  0  0  0  0  0  0  0  0  0  0  0
   38.8080   41.9488   30.9448 O   0  0  0  0  0  0  0  0  0  0  0  0
   39.0010   37.1833   28.8491 C   0  0  0  0  0  0  0  0  0  0  0  0
   39.2621   39.6203   28.0835 C   0  0  2  0  0  0  0  0  0  0  0  0
   39.1534   41.1411   28.6002 C   0  0  0  0  0  0  0  0  0  0  0  0
   39.3651   39.3403   26.6814 C   0  0  0  0  0  0  0  0  0  0  0  0
   39.9109   36.7904   27.9895 O   0  0  0  0  0  0  0  0  0  0  0  0
  1  2  1  0
  1  3  1  0
  2  4  1  0
  3  5  1  0
  4  6  1  0
  4  7  1  0
  5  7  1  0
  5  8  1  0
  7  9  1  0
  8 10  1  1
 10 11  1  0
 12 11  1  1
 12 13  1  0
 12 14  1  0
  9 15  1  1
  8 16  1  0
  9 16  1  0
 14 17  2  0
 13 18  1  1
 16 18  1  0
 13 19  1  0
 14 20  1  0
 19 20  1  0
 19 21  1  6
 18 22  2  0
M  END
$$$$
112
     RDKit          3D

 22 24  0  0  0  0  0  0  0  0999 V2000
   36.3001   34.6099   33.5538 N   0  0  0  0  0  0  0  0  0  0  0  0
   36.0855   34.2624   32.2985 C   0  0  2  0  0  0  0  0  0  0  0  0
   36.7086   34.7527   31.3232 N   0  0  0  0  0  0  0  0  0  0  0  0
   37.5392   35.8245   31.6764 C   0  0  1  0  0  0  0  0  0  0  0  0
   37.7544   36.2494   32.9079 C   0  0  2  0  0  0  0  0  0  0  0  0
   34.8570   33.2243   32.1547 C   0  0  0  0  0  0  0  0  0  0  0  0
   36.9828   35.7207   33.7717 C   0  0  0  0  0  0  0  0  0  0  0  0
   38.5668   37.5643   33.1133 C   0  0  1  0  0  0  0  0  0  0  0  0
   38.3763   36.6229   30.7343 C   0  0  0  0  0  0  0  0  0  0  0  0
   38.5956   38.0524   34.4376 O   0  0  0  0  0  0  0  0  0  0  0  0
   39.9058   38.4510   34.8567 C   0  0  0  0  0  0  0  0  0  0  0  0
   39.1660   38.0374   32.0959 C   0  0  0  0  0  0  0  0  0  0  0  0
   39.1366   37.5472   30.8742 C   0  0  2  0  0  0  0  0  0  0  0  0
   39.8003   38.0157   29.6422 N   0  0  0  0  0  0  0  0  0  0  0  0
   40.2765   39.3519   29.5467 C   0  0  0  0  0  0  0  0  0  0  0  0
   40.2813   37.2798   28.6244 C   0  0  0  0  0  0  0  0  0  0  0  0
   41.1241   39.5731   28.4588 C   0  0  1  0  0  0  0  0  0  0  0  0
   41.0589   38.2245   27.7321 C   0  0  0  0  0  0  0  0  0  0  0  0
   40.5823   40.5255   27.3732 N   0  0  0  0  0  0  0  0  0  0  0  0
   39.3229   40.6235   27.1315 C   0  0  0  0  0  0  0  0  0  0  0  0
   38.4641   40.7812   28.0470 O   0  0  0  0  0  0  0  0  0  0  0  0
   38.8354   40.6221   25.7947 N   0  0  0  0  0  0  0  0  0  0  0  0
  1  2  1  0
  2  3  1  0
  3  4  1  0
  4  5  1  0
  2  6  1  6
  1  7  1  0
  5  7  1  6
  5  8  1  0
  4  9  1  1
  8 10  1  1
 10 11  1  0
  8 12  1  0
  9 13  1  0
 12 13  1  0
 13 14  1  6
 14 15  1  0
 14 16  1  0
 15 17  1  0
 16 18  1  0
 17 18  1  0
 17 19  1  6
 19 20  1  0
 20 21  2  0
 20 22  1  0
M  END
$$$$
12
     RDKit          3D

 16 18  0  0  0  0  0  0  0  0999 V2000
   36.0314   33.4808   30.8148 C   0  0  0  0  0  0  0  0  0  0  0  0
   36.1755   34.0005   32.0158 C   0  0  0  0  0  0  0  0  0  0  0  0
   36.8910   35.1675   32.2236 C   0  0  0  0  0  0  0  0  0  0  0  0
   37.0706   33.9932   29.9054 C   0  0  2  0  0  0  0  0  0  0  0  0
   37.8325   35.0803   30.0836 C   0  0  1  0  0  0  0  0  0  0  0  0
   37.7731   35.6575   31.3408 C   0  0  0  0  0  0  0  0  0  0  0  0
   37.1944   33.4031   28.5542 O   0  0  0  0  0  0  0  0  0  0  0  0
   38.5786   35.3351   28.9221 C   0  0  2  0  0  0  0  0  0  0  0  0
   39.4367   36.4574   28.7210 C   0  0  0  0  0  0  0  0  0  0  0  0
   39.7853   36.9528   27.5357 C   0  0  0  0  0  0  0  0  0  0  0  0
   38.1271   34.4021   27.9860 C   0  0  1  0  0  0  0  0  0  0  0  0
   40.6431   38.0713   27.3150 C   0  0  0  0  0  0  0  0  0  0  0  0
   38.5192   34.2148   26.5887 C   0  0  0  0  0  0  0  0  0  0  0  0
   39.8601   37.1674   29.8136 C   0  0  0  0  0  0  0  0  0  0  0  0
   40.7567   38.2347   29.6983 C   0  0  0  0  0  0  0  0  0  0  0  0
   41.0916   38.7395   28.3988 C   0  0  0  0  0  0  0  0  0  0  0  0
  1  2  1  0
  2  3  1  0
  4  1  1  6
  4  5  1  0
  3  6  1  0
  5  6  1  1
  4  7  1  0
  5  8  1  0
  8  9  1  6
  9 10  1  0
  7 11  1  0
  8 11  1  0
 10 12  1  0
 11 13  1  1
  9 14  1  0
 14 15  1  0
 12 16  1  0
 15 16  1  0
M  END
$$$$
13
     RDKit          3D

 16 18  0  0  0  0  0  0  0  0999 V2000
   36.0314   33.4808   30.8148 C   0  0  0  0  0  0  0  0  0  0  0  0
   36.8119   33.8690   29.8847 N   0  0  0  0  0  0  0  0  0  0  0  0
   35.9088   33.8600   31.9970 N   0  0  0  0  0  0  0  0  0  0  0  0
   37.1300   33.3035   28.7088 N   0  0  0  0  0  0  0  0  0  0  0  0
   36.7264   35.0600   32.1278 C   0  0  1  0  0  0  0  0  0  0  0  0
   37.6443   34.9652   30.1719 C   0  0  2  0  0  0  0  0  0  0  0  0
   36.6341   35.6340   33.4709 N   0  0  0  0  0  0  0  0  0  0  0  0
   37.5493   35.6767   31.4054 C   0  0  0  0  0  0  0  0  0  0  0  0
   38.3663   35.1689   28.9971 N   0  0  0  0  0  0  0  0  0  0  0  0
   38.2740   36.8661   31.8373 C   0  0  0  0  0  0  0  0  0  0  0  0
   38.1165   37.3256   32.9991 C   0  0  0  0  0  0  0  0  0  0  0  0
   37.2255   36.6636   33.8534 C   0  0  0  0  0  0  0  0  0  0  0  0
   38.0439   34.1402   28.1351 C   0  0  0  0  0  0  0  0  0  0  0  0
   38.5988   33.9924   26.7941 C   0  0  0  0  0  0  0  0  0  0  0  0
   38.1084   34.6148   25.8949 O   0  0  0  0  0  0  0  0  0  0  0  0
   39.5630   33.4057   26.8128 O   0  0  0  0  0  0  0  0  0  0  0  0
  1  2  1  0
  1  3  1  0
  2  4  1  0
  5  3  1  1
  2  6  1  0
  5  7  1  0
  5  8  1  0
  6  8  1  0
  6  9  1  6
  8 10  1  0
 10 11  1  0
  7 12  1  0
 11 12  1  0
  4 13  1  0
  9 13  1  0
 13 14  1  0
 14 15  2  0
 14 16  1  0
M  END
$$$$
14
     RDKit          3D

 16 18  0  0  0  0  0  0  0  0999 V2000
   37.7914   37.3496   33.1079 C   0  0  2  0  0  0  0  0  0  0  0  0
   38.3958   37.3825   31.9755 N   0  0  0  0  0  0  0  0  0  0  0  0
   38.2580   38.2193   34.1317 N   0  0  0  0  0  0  0  0  0  0  0  0
   38.0878   36.6075   31.2316 C   0  0  0  0  0  0  0  0  0  0  0  0
   37.2708   35.4441   31.6053 N   0  0  0  0  0  0  0  0  0  0  0  0
   38.6809   36.3902   29.7975 N   0  0  0  0  0  0  0  0  0  0  0  0
   37.1377   36.0588   33.0796 C   0  0  2  0  0  0  0  0  0  0  0  0
   39.5308   37.3060   29.3040 C   0  0  0  0  0  0  0  0  0  0  0  0
   38.3181   35.2699   28.9693 C   0  0  0  0  0  0  0  0  0  0  0  0
   36.3342   35.1503   33.8210 N   0  0  0  0  0  0  0  0  0  0  0  0
   38.8600   35.4788   27.6346 C   0  0  1  0  0  0  0  0  0  0  0  0
   37.6430   33.9688   28.8956 C   0  0  0  0  0  0  0  0  0  0  0  0
   37.8226   33.1933   28.1230 C   0  0  0  0  0  0  0  0  0  0  0  0
   39.6602   36.8315   27.8623 C   0  0  0  0  0  0  0  0  0  0  0  0
   38.9641   34.6139   26.6369 C   0  0  0  0  0  0  0  0  0  0  0  0
   38.2906   33.4960   26.7639 C   0  0  0  0  0  0  0  0  0  0  0  0
  1  2  1  0
  1  3  1  1
  2  4  1  0
  4  5  1  0
  4  6  1  0
  1  7  1  0
  5  7  1  0
  6  8  1  0
  6  9  1  0
  7 10  1  6
  9 11  1  0
  9 12  1  0
 12 13  1  0
  8 14  1  0
 11 14  1  1
 11 15  1  0
 13 16  1  0
 15 16  1  0
M  END
$$$$
15
     RDKit          3D

 16 18  0  0  0  0  0  0  0  0999 V2000
   35.5247   33.4398   32.8856 C   0  0  0  0  0  0  0  0  0  0  0  0
   35.5784   33.4754   31.5143 C   0  0  0  0  0  0  0  0  0  0  0  0
   36.8123   34.0651   31.0476 C   0  0  1  0  0  0  0  0  0  0  0  0
   36.9795   34.0849   29.5649 C   0  0  0  0  0  0  0  0  0  0  0  0
   36.0261   34.6804   33.2378 C   0  0  0  0  0  0  0  0  0  0  0  0
   37.2401   35.3172   31.5910 C   0  0  1  0  0  0  0  0  0  0  0  0
   36.9437   35.4925   32.8999 C   0  0  0  0  0  0  0  0  0  0  0  0
   37.9850   34.8919   28.9710 N   0  0  0  0  0  0  0  0  0  0  0  0
   38.3579   34.6960   27.6306 C   0  0  2  0  0  0  0  0  0  0  0  0
   38.1961   36.1756   30.9161 C   0  0  0  0  0  0  0  0  0  0  0  0
   38.5258   35.9793   29.8063 C   0  0  1  0  0  0  0  0  0  0  0  0
   39.6374   36.8069   29.1253 N   0  0  0  0  0  0  0  0  0  0  0  0
   37.8731   33.6839   27.0067 O   0  0  0  0  0  0  0  0  0  0  0  0
   39.4916   35.5087   27.0444 C   0  0  0  0  0  0  0  0  0  0  0  0
   39.8766   36.5338   27.8073 C   0  0  0  0  0  0  0  0  0  0  0  0
   38.1782   33.2126   25.9081 C   0  0  0  0  0  0  0  0  0  0  0  0
  1  2  1  0
  3  2  1  6
  3  4  1  0
  1  5  1  0
  3  6  1  0
  5  7  1  0
  6  7  1  1
  4  8  1  0
  8  9  1  0
  6 10  1  0
  8 11  1  0
 11 10  1  1
 11 12  1  0
  9 13  1  1
  9 14  1  0
 12 15  1  0
 14 15  1  0
 13 16  1  0
M  END
$$$$
16
     RDKit          3D

 17 20  0  0  0  0  0  0  0  0999 V2000
   37.1198   36.5681   33.8826 C   0  0  1  0  0  0  0  0  0  0  0  0
   37.9732   37.1404   33.1071 N   0  0  0  0  0  0  0  0  0  0  0  0
   36.4608   35.3960   33.5329 N   0  0  0  0  0  0  0  0  0  0  0  0
   37.1197   36.6884   35.3630 C   0  0  0  0  0  0  0  0  0  0  0  0
   37.9800   37.6337   35.8520 C   0  0  0  0  0  0  0  0  0  0  0  0
   38.8658   38.2849   35.0435 C   0  0  0  0  0  0  0  0  0  0  0  0
   38.8731   37.9701   33.6961 C   0  0  0  0  0  0  0  0  0  0  0  0
   37.9489   36.6571   31.8327 C   0  0  1  0  0  0  0  0  0  0  0  0
   36.4695   35.0225   32.1976 C   0  0  1  0  0  0  0  0  0  0  0  0
   38.9203   37.3399   30.9819 N   0  0  0  0  0  0  0  0  0  0  0  0
   37.3965   35.5801   31.3751 C   0  0  1  0  0  0  0  0  0  0  0  0
   35.8050   33.9316   31.7940 N   0  0  0  0  0  0  0  0  0  0  0  0
   39.0835   36.8014   29.6906 C   0  0  0  0  0  0  0  0  0  0  0  0
   37.5179   35.1151   30.1201 C   0  0  1  0  0  0  0  0  0  0  0  0
   38.3945   35.7350   29.4290 N   0  0  0  0  0  0  0  0  0  0  0  0
   36.9255   33.9172   29.7344 N   0  0  0  0  0  0  0  0  0  0  0  0
   36.0967   33.4010   30.5295 C   0  0  0  0  0  0  0  0  0  0  0  0
  1  2  1  0
  1  3  1  0
  1  4  1  1
  4  5  1  0
  5  6  1  0
  2  7  1  0
  6  7  1  0
  2  8  1  0
  9  3  1  1
  8 10  1  1
 11  8  1  6
  9 11  1  0
  9 12  1  0
 10 13  1  0
 11 14  1  0
 13 15  1  0
 14 15  1  1
 14 16  1  0
 12 17  1  0
 16 17  1  0
M  END
$$$$
17
     RDKit          3D

 17 20  0  0  0  0  0  0  0  0999 V2000
   36.3367   35.0125   33.4818 C   0  0  0  0  0  0  0  0  0  0  0  0
   35.9160   34.1370   32.6178 C   0  0  0  0  0  0  0  0  0  0  0  0
   37.1753   36.0861   33.0183 C   0  0  0  0  0  0  0  0  0  0  0  0
   37.6621   36.1062   31.7240 C   0  0  2  0  0  0  0  0  0  0  0  0
   36.4986   34.2012   31.2588 C   0  0  0  0  0  0  0  0  0  0  0  0
   37.2938   35.0766   30.8083 C   0  0  0  0  0  0  0  0  0  0  0  0
   38.5904   37.0856   31.2835 C   0  0  0  0  0  0  0  0  0  0  0  0
   37.8110   35.0916   29.4780 C   0  0  1  0  0  0  0  0  0  0  0  0
   39.0855   37.0418   29.9854 C   0  0  0  0  0  0  0  0  0  0  0  0
   38.7310   36.0320   29.0930 C   0  0  2  0  0  0  0  0  0  0  0  0
   39.2867   36.0638   27.7364 C   0  0  1  0  0  0  0  0  0  0  0  0
   37.5456   33.9636   28.4302 C   0  0  0  0  0  0  0  0  0  0  0  0
   40.1423   37.1801   27.3176 C   0  0  0  0  0  0  0  0  0  0  0  0
   39.3096   34.8669   26.9051 C   0  0  0  0  0  0  0  0  0  0  0  0
   38.3267   33.9476   27.3104 C   0  0  0  0  0  0  0  0  0  0  0  0
   40.0780   38.1416   29.5588 C   0  0  0  0  0  0  0  0  0  0  0  0
   40.4547   38.1446   28.2417 C   0  0  0  0  0  0  0  0  0  0  0  0
  1  2  1  0
  1  3  1  0
  4  3  1  1
  2  5  1  0
  4  6  1  0
  5  6  1  0
  4  7  1  0
  6  8  1  0
  7  9  1  0
  8 10  1  0
 10  9  1  6
 10 11  1  0
  8 12  1  1
 11 13  1  1
 11 14  1  0
 12 15  1  0
 14 15  1  0
  9 16  1  0
 13 17  1  0
 16 17  1  0
M  END
$$$$
18
     RDKit          3D

 17 18  0  0  0  0  0  0  0  0999 V2000
   36.3367   35.0125   33.4818 N   0  0  0  0  0  0  0  0  0  0  0  0
   37.0967   36.0396   33.4903 C   0  0  0  0  0  0  0  0  0  0  0  0
   37.7416   36.5344   32.3818 N   0  0  0  0  0  0  0  0  0  0  0  0
   37.2970   36.7727   34.6201 N   0  0  0  0  0  0  0  0  0  0  0  0
   37.5744   35.7058   31.1983 C   0  0  0  0  0  0  0  0  0  0  0  0
   38.2911   36.1034   30.0529 N   0  0  0  0  0  0  0  0  0  0  0  0
   36.2928   34.3463   32.1969 C   0  0  2  0  0  0  0  0  0  0  0  0
   36.8520   34.6873   31.0635 N   0  0  0  0  0  0  0  0  0  0  0  0
   35.2841   33.1803   32.2138 C   0  0  0  0  0  0  0  0  0  0  0  0
   38.1419   35.2485   28.9777 C   0  0  0  0  0  0  0  0  0  0  0  0
   38.9694   35.4846   27.7774 C   0  0  0  0  0  0  0  0  0  0  0  0
   38.9135   34.5545   26.6607 C   0  0  0  0  0  0  0  0  0  0  0  0
   39.1746   37.1869   29.8950 C   0  0  0  0  0  0  0  0  0  0  0  0
   39.8016   36.6541   27.7238 C   0  0  0  0  0  0  0  0  0  0  0  0
   37.6784   33.7001   26.7131 C   0  0  0  0  0  0  0  0  0  0  0  0
   39.8074   37.5058   28.7372 C   0  0  0  0  0  0  0  0  0  0  0  0
   37.5661   32.7378   25.6136 C   0  0  0  0  0  0  0  0  0  0  0  0
  1  2  1  0
  2  3  1  0
  2  4  1  0
  3  5  1  0
  5  6  1  0
  1  7  1  0
  5  8  1  0
  7  8  1  0
  7  9  1  6
  6 10  1  0
 10 11  1  0
 11 12  1  0
  6 13  1  0
 11 14  1  0
 12 15  1  0
 13 16  1  0
 14 16  1  0
 15 17  1  0
M  END
$$$$
19
     RDKit          3D

 17 20  0  0  0  0  0  0  0  0999 V2000
   35.3652   33.1354   32.5524 O   0  0  0  0  0  0  0  0  0  0  0  0
   35.8374   33.7533   31.5252 C   0  0  0  0  0  0  0  0  0  0  0  0
   36.8008   34.8303   31.7959 C   0  0  2  0  0  0  0  0  0  0  0  0
   36.0582   33.2146   30.2789 N   0  0  0  0  0  0  0  0  0  0  0  0
   36.8198   33.6942   29.3138 C   0  0  1  0  0  0  0  0  0  0  0  0
   36.7799   35.4741   33.0854 N   0  0  0  0  0  0  0  0  0  0  0  0
   37.5258   36.6042   33.1194 C   0  0  1  0  0  0  0  0  0  0  0  0
   37.5958   35.5022   30.8906 C   0  0  1  0  0  0  0  0  0  0  0  0
   38.2454   36.5378   31.3309 N   0  0  0  0  0  0  0  0  0  0  0  0
   37.6528   34.8883   29.5986 N   0  0  0  0  0  0  0  0  0  0  0  0
   37.4836   37.1513   34.4810 N   0  0  0  0  0  0  0  0  0  0  0  0
   38.1857   37.0445   32.4742 C   0  0  0  0  0  0  0  0  0  0  0  0
   37.2354   33.3360   28.1656 N   0  0  0  0  0  0  0  0  0  0  0  0
   38.8249   38.1248   33.1508 N   0  0  0  0  0  0  0  0  0  0  0  0
   38.5148   37.9995   34.5190 C   0  0  0  0  0  0  0  0  0  0  0  0
   38.5614   35.2879   28.6174 C   0  0  0  0  0  0  0  0  0  0  0  0
   38.2331   34.0507   27.5955 C   0  0  0  0  0  0  0  0  0  0  0  0
  1  2  2  0
  2  3  1  0
  2  4  1  0
  5  4  1  1
  3  6  1  6
  7  6  1  1
  3  8  1  0
  8  9  1  1
  5 10  1  0
  8 10  1  0
  7 11  1  0
  7 12  1  0
  9 12  1  0
  5 13  1  0
 12 14  1  0
 11 15  1  0
 14 15  1  0
 10 16  1  0
 13 17  1  0
 16 17  1  0
M  END
$$$$
2
     RDKit          3D

 13 14  0  0  0  0  0  0  0  0999 V2000
   36.3001   34.6099   33.5538 C   0  0  0  0  0  0  0  0  0  0  0  0
   35.8191   33.9305   32.4895 C   0  0  2  0  0  0  0  0  0  0  0  0
   35.0144   32.7849   32.5957 O   0  0  0  0  0  0  0  0  0  0  0  0
   36.4298   34.3399   31.2043 C   0  0  0  0  0  0  0  0  0  0  0  0
   37.0153   35.8974   33.1753 C   0  0  0  0  0  0  0  0  0  0  0  0
   37.2153   35.2873   30.9391 C   0  0  1  0  0  0  0  0  0  0  0  0
   37.5657   36.1282   32.0520 C   0  0  0  0  0  0  0  0  0  0  0  0
   37.7933   35.4702   29.6962 C   0  0  1  0  0  0  0  0  0  0  0  0
   38.7145   36.5626   29.4649 N   0  0  0  0  0  0  0  0  0  0  0  0
   38.1044   34.4286   28.8433 N   0  0  0  0  0  0  0  0  0  0  0  0
   38.7840   34.9801   27.7935 C   0  0  2  0  0  0  0  0  0  0  0  0
   39.1391   34.2822   26.5980 N   0  0  0  0  0  0  0  0  0  0  0  0
   39.2317   36.2245   28.0777 N   0  0  0  0  0  0  0  0  0  0  0  0
  1  2  1  0
  2  3  1  1
  2  4  1  0
  1  5  1  0
  6  4  1  1
  5  7  1  0
  6  7  1  0
  6  8  1  0
  8  9  1  1
  8 10  1  0
 10 11  1  0
 11 12  1  1
  9 13  1  0
 11 13  1  0
M  END
$$$$
20
     RDKit          3D

 17 19  0  0  0  0  0  0  0  0999 V2000
   35.3652   33.1354   32.5524 O   0  0  0  0  0  0  0  0  0  0  0  0
   35.9560   34.1201   32.7476 C   0  0  0  0  0  0  0  0  0  0  0  0
   36.6625   34.7486   31.6066 C   0  0  2  0  0  0  0  0  0  0  0  0
   36.9826   34.1659   30.4108 C   0  0  0  0  0  0  0  0  0  0  0  0
   37.8202   34.7425   29.5037 C   0  0  1  0  0  0  0  0  0  0  0  0
   38.3820   35.9696   29.7473 C   0  0  2  0  0  0  0  0  0  0  0  0
   35.8637   35.0955   33.6994 N   0  0  0  0  0  0  0  0  0  0  0  0
   39.3156   36.5090   28.7871 N   0  0  0  0  0  0  0  0  0  0  0  0
   38.1299   36.6037   30.9419 C   0  0  0  0  0  0  0  0  0  0  0  0
   36.7368   36.1493   33.4224 C   0  0  0  0  0  0  0  0  0  0  0  0
   37.1066   37.1303   34.1622 O   0  0  0  0  0  0  0  0  0  0  0  0
   38.2483   33.9510   28.1434 C   0  0  0  0  0  0  0  0  0  0  0  0
   37.2864   35.8950   31.9917 C   0  0  1  0  0  0  0  0  0  0  0  0
   39.0484   34.6274   27.3801 C   0  0  1  0  0  0  0  0  0  0  0  0
   39.3087   33.9597   26.0919 O   0  0  0  0  0  0  0  0  0  0  0  0
   39.4798   35.9437   27.5777 C   0  0  0  0  0  0  0  0  0  0  0  0
   38.3406   33.5370   25.4272 C   0  0  0  0  0  0  0  0  0  0  0  0
  1  2  2  0
  2  3  1  0
  3  4  1  1
  5  4  1  1
  5  6  1  0
  2  7  1  0
  6  8  1  0
  6  9  1  1
  7 10  1  0
 10 11  2  0
  5 12  1  0
  3 13  1  0
 13  9  1  6
 10 13  1  0
 12 14  1  0
 14 15  1  6
  8 16  1  0
 14 16  1  0
 15 17  1  0
M  END
$$$$
21
     RDKit          3D

 17 20  0  0  0  0  0  0  0  0999 V2000
   36.3367   35.0125   33.4818 C   0  0  0  0  0  0  0  0  0  0  0  0
   37.1885   36.0167   33.0675 N   0  0  0  0  0  0  0  0  0  0  0  0
   37.6289   36.9486   33.9010 C   0  0  2  0  0  0  0  0  0  0  0  0
   35.9570   34.9284   34.6498 N   0  0  0  0  0  0  0  0  0  0  0  0
   38.5893   37.8334   33.4140 N   0  0  0  0  0  0  0  0  0  0  0  0
   36.0168   34.1556   32.3471 N   0  0  0  0  0  0  0  0  0  0  0  0
   37.6948   36.3015   31.7876 C   0  0  1  0  0  0  0  0  0  0  0  0
   37.5307   37.2981   35.3837 C   0  0  0  0  0  0  0  0  0  0  0  0
   38.6750   37.3179   32.0313 C   0  0  1  0  0  0  0  0  0  0  0  0
   36.5584   34.2661   31.0629 C   0  0  0  0  0  0  0  0  0  0  0  0
   37.5546   35.4222   30.6931 C   0  0  2  0  0  0  0  0  0  0  0  0
   36.2328   33.3681   30.0171 C   0  0  0  0  0  0  0  0  0  0  0  0
   39.2988   37.8461   30.8109 C   0  0  0  0  0  0  0  0  0  0  0  0
   39.1686   37.0361   29.5870 C   0  0  0  0  0  0  0  0  0  0  0  0
   37.3005   33.0503   29.1755 C   0  0  0  0  0  0  0  0  0  0  0  0
   38.3280   35.6826   29.5613 C   0  0  1  0  0  0  0  0  0  0  0  0
   38.2093   34.5817   28.6258 C   0  0  0  0  0  0  0  0  0  0  0  0
  1  2  1  0
  2  3  1  0
  1  4  2  0
  3  5  1  0
  1  6  1  0
  7  2  1  1
  3  8  1  1
  5  9  1  0
  7  9  1  0
  6 10  1  0
  7 11  1  0
 11 10  1  1
 10 12  1  0
  9 13  1  6
 13 14  1  0
 12 15  1  0
 11 16  1  0
 16 14  1  1
 15 17  1  0
 16 17  1  0
M  END
$$$$
22
     RDKit          3D

 17 19  0  0  0  0  0  0  0  0999 V2000
   36.3367   35.0125   33.4818 C   0  0  0  0  0  0  0  0  0  0  0  0
   35.9160   34.1370   32.6178 N   0  0  0  0  0  0  0  0  0  0  0  0
   37.0552   36.0595   32.9097 C   0  0  0  0  0  0  0  0  0  0  0  0
   36.3211   34.0249   31.3333 C   0  0  0  0  0  0  0  0  0  0  0  0
   37.4700   35.7893   31.6440 C   0  0  0  0  0  0  0  0  0  0  0  0
   35.8239   32.9311   30.5123 N   0  0  0  0  0  0  0  0  0  0  0  0
   37.1023   34.8588   30.9473 C   0  0  0  0  0  0  0  0  0  0  0  0
   38.5228   36.9095   31.1384 C   0  0  1  0  0  0  0  0  0  0  0  0
   37.8096   35.0600   29.5667 C   0  0  2  0  0  0  0  0  0  0  0  0
   38.9782   37.8860   31.8828 N   0  0  0  0  0  0  0  0  0  0  0  0
   37.8192   34.2335   28.5189 C   0  0  0  0  0  0  0  0  0  0  0  0
   38.6715   36.2802   29.8256 N   0  0  0  0  0  0  0  0  0  0  0  0
   39.4405   36.5201   28.6364 C   0  0  0  0  0  0  0  0  0  0  0  0
   38.5761   34.6815   27.3946 C   0  0  2  0  0  0  0  0  0  0  0  0
   38.5231   33.9318   26.1985 C   0  0  0  0  0  0  0  0  0  0  0  0
   39.5136   35.7360   27.5462 C   0  0  0  0  0  0  0  0  0  0  0  0
   38.6294   34.6079   25.0738 C   0  0  0  0  0  0  0  0  0  0  0  0
  1  2  1  0
  1  3  1  0
  2  4  1  0
  3  5  1  0
  4  6  1  0
  4  7  1  0
  5  7  1  0
  5  8  1  0
  7  9  1  0
  8 10  1  1
  9 11  1  1
  8 12  1  0
  9 12  1  0
 12 13  1  0
 11 14  1  0
 14 15  1  1
 13 16  1  0
 14 16  1  0
 15 17  2  0
M  END
$$$$
23
     RDKit          3D

 17 18  0  0  0  0  0  0  0  0999 V2000
   35.3652   33.1354   32.5524 O   0  0  0  0  0  0  0  0  0  0  0  0
   35.8374   33.7533   31.5252 C   0  0  0  0  0  0  0  0  0  0  0  0
   36.8008   34.8303   31.7959 C   0  0  2  0  0  0  0  0  0  0  0  0
   36.0582   33.2146   30.2789 N   0  0  0  0  0  0  0  0  0  0  0  0
   36.8198   33.6942   29.3138 C   0  0  1  0  0  0  0  0  0  0  0  0
   36.7799   35.4741   33.0854 N   0  0  0  0  0  0  0  0  0  0  0  0
   37.5258   36.6042   33.1194 C   0  0  0  0  0  0  0  0  0  0  0  0
   37.5958   35.5022   30.8906 C   0  0  1  0  0  0  0  0  0  0  0  0
   38.2454   36.5378   31.3309 N   0  0  0  0  0  0  0  0  0  0  0  0
   37.7067   34.9544   29.5683 N   0  0  0  0  0  0  0  0  0  0  0  0
   38.2484   37.0987   32.3634 C   0  0  0  0  0  0  0  0  0  0  0  0
   39.1220   38.3499   32.8072 C   0  0  0  0  0  0  0  0  0  0  0  0
   39.0453   39.3959   31.8721 C   0  0  0  0  0  0  0  0  0  0  0  0
   37.0182   33.2272   28.1501 N   0  0  0  0  0  0  0  0  0  0  0  0
   38.2835   39.5339   31.0038 O   0  0  0  0  0  0  0  0  0  0  0  0
   40.0668   40.3666   31.9905 O   0  0  0  0  0  0  0  0  0  0  0  0
   40.9284   40.2575   32.9912 C   0  0  0  0  0  0  0  0  0  0  0  0
  1  2  2  0
  2  3  1  0
  2  4  1  0
  4  5  1  0
  3  6  1  6
  6  7  1  0
  3  8  1  0
  8  9  1  1
  5 10  1  0
  8 10  1  0
  7 11  1  0
  9 11  1  0
 11 12  1  0
 12 13  1  0
  5 14  1  1
 13 15  2  0
 13 16  1  0
 16 17  1  0
M  END
$$$$
24
     RDKit          3D

 17 19  0  0  0  0  0  0  0  0999 V2000
   36.0314   33.4808   30.8148 C   0  0  0  0  0  0  0  0  0  0  0  0
   36.8119   33.8690   29.8847 N   0  0  0  0  0  0  0  0  0  0  0  0
   35.9088   33.8600   31.9970 N   0  0  0  0  0  0  0  0  0  0  0  0
   37.1300   33.3035   28.7088 N   0  0  0  0  0  0  0  0  0  0  0  0
   36.7264   35.0600   32.1278 C   0  0  1  0  0  0  0  0  0  0  0  0
   37.6443   34.9652   30.1719 C   0  0  2  0  0  0  0  0  0  0  0  0
   36.6341   35.6340   33.4709 N   0  0  0  0  0  0  0  0  0  0  0  0
   37.5493   35.6767   31.4054 C   0  0  0  0  0  0  0  0  0  0  0  0
   38.3663   35.1689   28.9971 N   0  0  0  0  0  0  0  0  0  0  0  0
   38.2740   36.8661   31.8373 C   0  0  0  0  0  0  0  0  0  0  0  0
   38.1165   37.3256   32.9991 C   0  0  0  0  0  0  0  0  0  0  0  0
   37.2255   36.6636   33.8534 C   0  0  0  0  0  0  0  0  0  0  0  0
   38.0439   34.1402   28.1351 C   0  0  0  0  0  0  0  0  0  0  0  0
   38.6220   33.9071   26.7040 C   0  0  2  0  0  0  0  0  0  0  0  0
   39.2853   34.9468   26.2723 C   0  0  0  0  0  0  0  0  0  0  0  0
   37.3994   33.6180   25.9287 C   0  0  0  0  0  0  0  0  0  0  0  0
   38.6351   36.2269   26.0715 O   0  0  0  0  0  0  0  0  0  0  0  0
  1  2  1  0
  1  3  1  0
  2  4  1  0
  5  3  1  1
  2  6  1  0
  5  7  1  0
  5  8  1  0
  6  8  1  0
  6  9  1  6
  8 10  1  0
 10 11  1  0
  7 12  1  0
 11 12  1  0
  4 13  1  0
  9 13  1  0
 13 14  1  0
 14 15  1  0
 14 16  1  6
 15 17  1  0
M  END
$$$$
25
     RDKit          3D

 17 20  0  0  0  0  0  0  0  0999 V2000
   36.0314   33.4808   30.8148 C   0  0  0  0  0  0  0  0  0  0  0  0
   36.8119   33.8690   29.8847 N   0  0  0  0  0  0  0  0  0  0  0  0
   35.9088   33.8600   31.9970 N   0  0  0  0  0  0  0  0  0  0  0  0
   37.1300   33.3035   28.7088 N   0  0  0  0  0  0  0  0  0  0  0  0
   36.7264   35.0600   32.1278 C   0  0  1  0  0  0  0  0  0  0  0  0
   37.6443   34.9652   30.1719 C   0  0  2  0  0  0  0  0  0  0  0  0
   36.6341   35.6340   33.4709 N   0  0  0  0  0  0  0  0  0  0  0  0
   37.5493   35.6767   31.4054 C   0  0  0  0  0  0  0  0  0  0  0  0
   38.3663   35.1689   28.9971 N   0  0  0  0  0  0  0  0  0  0  0  0
   38.2740   36.8661   31.8373 C   0  0  0  0  0  0  0  0  0  0  0  0
   38.1165   37.3256   32.9991 C   0  0  0  0  0  0  0  0  0  0  0  0
   37.1947   36.7063   33.8676 C   0  0  0  0  0  0  0  0  0  0  0  0
   39.3718   36.2066   28.6706 C   0  0  0  0  0  0  0  0  0  0  0  0
   39.7241   36.3457   27.3867 C   0  0  0  0  0  0  0  0  0  0  0  0
   38.0660   34.1942   28.0896 C   0  0  2  0  0  0  0  0  0  0  0  0
   38.6239   34.2391   26.7689 C   0  0  0  0  0  0  0  0  0  0  0  0
   39.3766   35.3391   26.4267 C   0  0  0  0  0  0  0  0  0  0  0  0
  1  2  1  0
  1  3  1  0
  2  4  1  0
  5  3  1  1
  2  6  1  0
  5  7  1  0
  5  8  1  0
  6  8  1  6
  6  9  1  0
  8 10  1  0
 10 11  1  0
  7 12  1  0
 11 12  1  0
  9 13  1  0
 13 14  1  0
  4 15  1  0
  9 15  1  0
 15 16  1  6
 14 17  1  0
 16 17  1  0
M  END
$$$$
26
     RDKit          3D

 18 21  0  0  0  0  0  0  0  0999 V2000
   35.3652   33.1354   32.5524 O   0  0  0  0  0  0  0  0  0  0  0  0
   35.8374   33.7533   31.5252 C   0  0  0  0  0  0  0  0  0  0  0  0
   36.8008   34.8303   31.7959 C   0  0  2  0  0  0  0  0  0  0  0  0
   36.0582   33.2146   30.2789 N   0  0  0  0  0  0  0  0  0  0  0  0
   36.8198   33.6942   29.3138 C   0  0  1  0  0  0  0  0  0  0  0  0
   36.7799   35.4741   33.0854 N   0  0  0  0  0  0  0  0  0  0  0  0
   37.5258   36.6042   33.1194 C   0  0  1  0  0  0  0  0  0  0  0  0
   37.5958   35.5022   30.8906 C   0  0  1  0  0  0  0  0  0  0  0  0
   38.2454   36.5378   31.3309 N   0  0  0  0  0  0  0  0  0  0  0  0
   37.6528   34.8883   29.5986 N   0  0  0  0  0  0  0  0  0  0  0  0
   37.4836   37.1513   34.4810 N   0  0  0  0  0  0  0  0  0  0  0  0
   38.1857   37.0445   32.4742 C   0  0  0  0  0  0  0  0  0  0  0  0
   37.2354   33.3360   28.1656 N   0  0  0  0  0  0  0  0  0  0  0  0
   38.2196   33.8922   27.4904 C   0  0  0  0  0  0  0  0  0  0  0  0
   38.5336   35.0318   28.5210 C   0  0  0  0  0  0  0  0  0  0  0  0
   38.7785   38.1434   33.1905 N   0  0  0  0  0  0  0  0  0  0  0  0
   39.7950   39.0669   32.5553 C   0  0  0  0  0  0  0  0  0  0  0  0
   38.5943   38.1793   34.4349 C   0  0  0  0  0  0  0  0  0  0  0  0
  1  2  2  0
  2  3  1  0
  2  4  1  0
  5  4  1  1
  3  6  1  6
  7  6  1  1
  3  8  1  0
  8  9  1  1
  5 10  1  0
  8 10  1  0
  7 11  1  0
  7 12  1  0
  9 12  1  0
  5 13  1  0
 13 14  1  0
 10 15  1  0
 14 15  1  0
 12 16  1  0
 16 17  1  0
 11 18  1  0
 16 18  1  0
M  END
$$$$
27
     RDKit          3D

 18 20  0  0  0  0  0  0  0  0999 V2000
   37.1198   36.5681   33.8826 N   0  0  0  0  0  0  0  0  0  0  0  0
   38.0011   37.2101   33.3742 C   0  0  0  0  0  0  0  0  0  0  0  0
   36.4509   35.5098   33.3610 C   0  0  0  0  0  0  0  0  0  0  0  0
   36.7336   35.1659   32.0781 N   0  0  0  0  0  0  0  0  0  0  0  0
   38.2524   36.8087   32.1412 N   0  0  0  0  0  0  0  0  0  0  0  0
   38.7586   38.3358   34.0701 C   0  0  0  0  0  0  0  0  0  0  0  0
   35.5579   34.7764   34.1283 N   0  0  0  0  0  0  0  0  0  0  0  0
   39.2721   37.6220   31.3473 C   0  0  0  0  0  0  0  0  0  0  0  0
   38.6914   38.4695   35.3398 O   0  0  0  0  0  0  0  0  0  0  0  0
   37.7076   35.8856   31.4181 C   0  0  1  0  0  0  0  0  0  0  0  0
   38.0608   35.4881   30.1399 C   0  0  2  0  0  0  0  0  0  0  0  0
   38.9837   36.2467   29.4098 C   0  0  0  0  0  0  0  0  0  0  0  0
   39.5872   37.2695   30.0501 N   0  0  0  0  0  0  0  0  0  0  0  0
   37.4892   34.3046   29.3462 C   0  0  0  0  0  0  0  0  0  0  0  0
   37.9783   34.0434   28.1117 C   0  0  2  0  0  0  0  0  0  0  0  0
   39.4091   36.0490   28.0260 C   0  0  0  0  0  0  0  0  0  0  0  0
   38.8014   34.8752   27.3994 C   0  0  0  0  0  0  0  0  0  0  0  0
   37.3944   32.8893   27.4866 O   0  0  0  0  0  0  0  0  0  0  0  0
  1  2  1  0
  1  3  1  0
  3  4  1  0
  2  5  1  0
  2  6  1  0
  3  7  1  0
  5  8  1  0
  6  9  1  0
 10  4  1  1
  5 10  1  0
 10 11  1  0
 11 12  1  0
  8 13  1  0
 12 13  1  0
 11 14  1  6
 14 15  1  0
 12 16  1  0
 15 17  1  0
 16 17  1  0
 15 18  1  6
M  END
$$$$
28
     RDKit          3D

 18 19  0  0  0  0  0  0  0  0999 V2000
   37.7914   37.3496   33.1079 N   0  0  0  0  0  0  0  0  0  0  0  0
   38.4148   37.5390   32.0886 C   0  0  2  0  0  0  0  0  0  0  0  0
   39.1620   38.6430   31.7657 N   0  0  0  0  0  0  0  0  0  0  0  0
   38.1576   36.4811   31.1150 C   0  0  0  0  0  0  0  0  0  0  0  0
   39.2599   39.5909   32.7103 C   0  0  0  0  0  0  0  0  0  0  0  0
   38.6592   36.4089   29.7943 N   0  0  0  0  0  0  0  0  0  0  0  0
   38.5218   35.3545   29.1481 C   0  0  0  0  0  0  0  0  0  0  0  0
   37.3708   35.3704   31.4312 C   0  0  0  0  0  0  0  0  0  0  0  0
   37.5669   34.3628   29.5333 N   0  0  0  0  0  0  0  0  0  0  0  0
   37.4043   33.2296   28.5654 C   0  0  0  0  0  0  0  0  0  0  0  0
   39.7482   40.8598   32.1921 C   0  0  0  0  0  0  0  0  0  0  0  0
   37.0948   34.3479   30.6888 C   0  0  2  0  0  0  0  0  0  0  0  0
   36.2209   33.3874   31.1273 N   0  0  0  0  0  0  0  0  0  0  0  0
   37.0163   35.9001   32.8767 C   0  0  0  0  0  0  0  0  0  0  0  0
   38.1953   32.1903   28.7029 C   0  0  0  0  0  0  0  0  0  0  0  0
   38.9113   41.4313   31.1854 C   0  0  0  0  0  0  0  0  0  0  0  0
   39.2041   42.6633   30.7327 O   0  0  0  0  0  0  0  0  0  0  0  0
   37.8288   40.8506   30.7641 O   0  0  0  0  0  0  0  0  0  0  0  0
  1  2  1  0
  2  3  1  6
  2  4  1  0
  3  5  1  0
  4  6  1  0
  6  7  1  0
  4  8  1  0
  7  9  1  0
  9 10  1  0
  5 11  1  0
  8 12  1  0
  9 12  1  0
 12 13  1  6
  1 14  1  0
  8 14  1  0
 10 15  1  0
 11 16  1  0
 16 17  2  0
 16 18  1  0
M  END
$$$$
29
     RDKit          3D

 18 20  0  0  0  0  0  0  0  0999 V2000
   37.1198   36.5681   33.8826 N   0  0  0  0  0  0  0  0  0  0  0  0
   38.0011   37.2101   33.3742 C   0  0  0  0  0  0  0  0  0  0  0  0
   36.4509   35.5098   33.3610 C   0  0  0  0  0  0  0  0  0  0  0  0
   36.7336   35.1659   32.0781 N   0  0  0  0  0  0  0  0  0  0  0  0
   38.2524   36.8087   32.1412 N   0  0  0  0  0  0  0  0  0  0  0  0
   38.7586   38.3358   34.0701 C   0  0  0  0  0  0  0  0  0  0  0  0
   35.5579   34.7764   34.1283 N   0  0  0  0  0  0  0  0  0  0  0  0
   39.2721   37.6220   31.3473 C   0  0  0  0  0  0  0  0  0  0  0  0
   38.6914   38.4695   35.3398 O   0  0  0  0  0  0  0  0  0  0  0  0
   37.7076   35.8856   31.4181 C   0  0  1  0  0  0  0  0  0  0  0  0
   38.0608   35.4881   30.1399 C   0  0  2  0  0  0  0  0  0  0  0  0
   38.9837   36.2467   29.4098 C   0  0  0  0  0  0  0  0  0  0  0  0
   39.5872   37.2695   30.0501 N   0  0  0  0  0  0  0  0  0  0  0  0
   37.4892   34.3046   29.3462 C   0  0  0  0  0  0  0  0  0  0  0  0
   39.3839   36.0175   28.0959 N   0  0  0  0  0  0  0  0  0  0  0  0
   37.8803   33.9995   28.1660 C   0  0  2  0  0  0  0  0  0  0  0  0
   38.7665   34.8694   27.4538 C   0  0  0  0  0  0  0  0  0  0  0  0
   37.2781   32.9209   27.3923 O   0  0  0  0  0  0  0  0  0  0  0  0
  1  2  1  0
  1  3  1  0
  3  4  1  0
  2  5  1  0
  2  6  1  0
  3  7  1  0
  5  8  1  0
  6  9  1  0
 10  4  1  1
  5 10  1  0
 10 11  1  0
 11 12  1  0
  8 13  1  0
 12 13  1  0
 11 14  1  6
 12 15  1  0
 14 16  1  0
 15 17  1  0
 16 17  1  0
 16 18  1  6
M  END
$$$$
3
     RDKit          3D

 14 16  0  0  0  0  0  0  0  0999 V2000
   36.0314   33.4808   30.8148 C   0  0  0  0  0  0  0  0  0  0  0  0
   36.1755   34.0005   32.0158 C   0  0  0  0  0  0  0  0  0  0  0  0
   36.8910   35.1675   32.2236 C   0  0  0  0  0  0  0  0  0  0  0  0
   37.0706   33.9932   29.9054 C   0  0  2  0  0  0  0  0  0  0  0  0
   37.8325   35.0803   30.0836 C   0  0  1  0  0  0  0  0  0  0  0  0
   37.7731   35.6575   31.3408 C   0  0  0  0  0  0  0  0  0  0  0  0
   37.1944   33.4031   28.5542 O   0  0  0  0  0  0  0  0  0  0  0  0
   38.5786   35.3351   28.9221 C   0  0  2  0  0  0  0  0  0  0  0  0
   39.4367   36.4574   28.7210 N   0  0  0  0  0  0  0  0  0  0  0  0
   38.0941   34.5197   27.8851 C   0  0  1  0  0  0  0  0  0  0  0  0
   38.5985   34.5136   26.5917 C   0  0  0  0  0  0  0  0  0  0  0  0
   39.5008   35.5772   26.3197 C   0  0  0  0  0  0  0  0  0  0  0  0
   39.9073   36.4731   27.3946 C   0  0  0  0  0  0  0  0  0  0  0  0
   38.2758   33.6209   25.6335 C   0  0  0  0  0  0  0  0  0  0  0  0
  1  2  1  0
  2  3  1  0
  4  1  1  6
  4  5  1  0
  3  6  1  0
  5  6  1  1
  4  7  1  0
  5  8  1  0
  8  9  1  6
 10  7  1  1
  8 10  1  0
 10 11  1  0
 11 12  1  0
  9 13  1  0
 12 13  1  0
 11 14  1  0
M  END
$$$$
30
     RDKit          3D

 18 20  0  0  0  0  0  0  0  0999 V2000
   36.3367   35.0125   33.4818 N   0  0  0  0  0  0  0  0  0  0  0  0
   37.0967   36.0396   33.4903 C   0  0  2  0  0  0  0  0  0  0  0  0
   37.2888   36.7333   34.6755 N   0  0  0  0  0  0  0  0  0  0  0  0
   37.7166   36.6259   32.3527 C   0  0  2  0  0  0  0  0  0  0  0  0
   36.3010   34.4440   32.0977 C   0  0  2  0  0  0  0  0  0  0  0  0
   37.6691   35.9376   31.1466 C   0  0  2  0  0  0  0  0  0  0  0  0
   35.5336   33.2398   32.0498 N   0  0  0  0  0  0  0  0  0  0  0  0
   38.3653   37.8010   32.7462 N   0  0  0  0  0  0  0  0  0  0  0  0
   36.9663   34.8173   31.0705 N   0  0  0  0  0  0  0  0  0  0  0  0
   38.4102   36.3742   30.0568 N   0  0  0  0  0  0  0  0  0  0  0  0
   36.9048   36.5968   35.9865 C   0  0  0  0  0  0  0  0  0  0  0  0
   38.6642   35.5405   29.0133 C   0  0  0  0  0  0  0  0  0  0  0  0
   38.0128   34.3391   28.7665 C   0  0  0  0  0  0  0  0  0  0  0  0
   38.2398   37.7704   34.1788 C   0  0  0  0  0  0  0  0  0  0  0  0
   37.1798   34.0704   29.9127 C   0  0  0  0  0  0  0  0  0  0  0  0
   38.0991   33.3983   27.5631 C   0  0  0  0  0  0  0  0  0  0  0  0
   38.4863   33.8561   26.5574 O   0  0  0  0  0  0  0  0  0  0  0  0
   37.6948   32.2357   27.7830 O   0  0  0  0  0  0  0  0  0  0  0  0
  2  1  1  6
  2  3  1  0
  2  4  1  0
  1  5  1  0
  4  6  1  0
  5  7  1  1
  4  8  1  1
  5  9  1  0
  6  9  1  0
  6 10  1  1
  3 11  1  0
 10 12  1  0
 12 13  1  0
  3 14  1  0
  8 14  1  0
  9 15  1  0
 13 15  1  0
 13 16  1  0
 16 17  1  0
 16 18  2  0
M  END
$$$$
31
     RDKit          3D

 18 20  0  0  0  0  0  0  0  0999 V2000
   36.3367   35.0125   33.4818 C   0  0  0  0  0  0  0  0  0  0  0  0
   35.9160   34.1370   32.6178 N   0  0  0  0  0  0  0  0  0  0  0  0
   37.0552   36.0595   32.9097 C   0  0  0  0  0  0  0  0  0  0  0  0
   36.3211   34.0249   31.3333 C   0  0  0  0  0  0  0  0  0  0  0  0
   37.4700   35.7893   31.6440 C   0  0  0  0  0  0  0  0  0  0  0  0
   35.8239   32.9311   30.5123 N   0  0  0  0  0  0  0  0  0  0  0  0
   37.1023   34.8588   30.9473 C   0  0  0  0  0  0  0  0  0  0  0  0
   38.5228   36.9095   31.1384 C   0  0  1  0  0  0  0  0  0  0  0  0
   37.8096   35.0600   29.5667 C   0  0  2  0  0  0  0  0  0  0  0  0
   38.9782   37.8860   31.8828 N   0  0  0  0  0  0  0  0  0  0  0  0
   37.8192   34.2335   28.5189 C   0  0  0  0  0  0  0  0  0  0  0  0
   38.6715   36.2802   29.8256 N   0  0  0  0  0  0  0  0  0  0  0  0
   39.4405   36.5201   28.6364 C   0  0  0  0  0  0  0  0  0  0  0  0
   38.5761   34.6815   27.3946 C   0  0  2  0  0  0  0  0  0  0  0  0
   38.5231   33.9318   26.1985 C   0  0  0  0  0  0  0  0  0  0  0  0
   39.5136   35.7360   27.5462 C   0  0  0  0  0  0  0  0  0  0  0  0
   38.5670   32.7711   26.0645 O   0  0  0  0  0  0  0  0  0  0  0  0
   38.4112   34.6686   24.9946 N   0  0  0  0  0  0  0  0  0  0  0  0
  1  2  1  0
  1  3  1  0
  2  4  1  0
  3  5  1  0
  4  6  1  0
  4  7  1  0
  5  7  1  0
  5  8  1  0
  7  9  1  0
  8 10  1  1
  9 11  1  1
  8 12  1  0
  9 12  1  0
 12 13  1  0
 11 14  1  0
 14 15  1  1
 13 16  1  0
 14 16  1  0
 15 17  2  0
 15 18  1  0
M  END
$$$$
32
     RDKit          3D

 18 20  0  0  0  0  0  0  0  0999 V2000
   36.3367   35.0125   33.4818 C   0  0  0  0  0  0  0  0  0  0  0  0
   35.9160   34.1370   32.6178 N   0  0  0  0  0  0  0  0  0  0  0  0
   37.0552   36.0595   32.9097 C   0  0  0  0  0  0  0  0  0  0  0  0
   36.3211   34.0249   31.3333 C   0  0  0  0  0  0  0  0  0  0  0  0
   37.4700   35.7893   31.6440 C   0  0  0  0  0  0  0  0  0  0  0  0
   35.8239   32.9311   30.5123 N   0  0  0  0  0  0  0  0  0  0  0  0
   37.1023   34.8588   30.9473 C   0  0  0  0  0  0  0  0  0  0  0  0
   38.5228   36.9095   31.1384 C   0  0  1  0  0  0  0  0  0  0  0  0
   37.8096   35.0600   29.5667 C   0  0  2  0  0  0  0  0  0  0  0  0
   38.9782   37.8860   31.8828 N   0  0  0  0  0  0  0  0  0  0  0  0
   37.8192   34.2335   28.5189 C   0  0  0  0  0  0  0  0  0  0  0  0
   38.6715   36.2802   29.8256 N   0  0  0  0  0  0  0  0  0  0  0  0
   39.4405   36.5201   28.6364 C   0  0  0  0  0  0  0  0  0  0  0  0
   38.5761   34.6815   27.3946 C   0  0  0  0  0  0  0  0  0  0  0  0
   39.3453   35.8360   27.5060 C   0  0  0  0  0  0  0  0  0  0  0  0
   38.5334   34.0041   26.1730 C   0  0  0  0  0  0  0  0  0  0  0  0
   39.0594   34.5256   25.0857 O   0  0  0  0  0  0  0  0  0  0  0  0
   38.1696   32.7395   26.0363 O   0  0  0  0  0  0  0  0  0  0  0  0
  1  2  1  0
  1  3  1  0
  2  4  1  0
  3  5  1  0
  4  6  1  0
  4  7  1  0
  5  7  1  0
  5  8  1  0
  7  9  1  0
  8 10  1  1
  9 11  1  1
  8 12  1  0
  9 12  1  0
 12 13  1  0
 11 14  1  0
 13 15  1  0
 14 15  1  0
 14 16  1  0
 16 17  2  0
 16 18  1  0
M  END
$$$$
33
     RDKit          3D

 18 20  0  0  0  0  0  0  0  0999 V2000
   36.3367   35.0125   33.4818 N   0  0  0  0  0  0  0  0  0  0  0  0
   36.2143   34.4258   32.3677 C   0  0  2  0  0  0  0  0  0  0  0  0
   35.4504   33.3534   32.0973 N   0  0  0  0  0  0  0  0  0  0  0  0
   37.0769   34.8972   31.2335 C   0  0  0  0  0  0  0  0  0  0  0  0
   37.0795   34.2716   30.0530 C   0  0  0  0  0  0  0  0  0  0  0  0
   37.7333   36.0412   31.6882 C   0  0  0  0  0  0  0  0  0  0  0  0
   37.0859   36.2159   33.4637 C   0  0  0  0  0  0  0  0  0  0  0  0
   37.8198   36.6844   32.6852 N   0  0  0  0  0  0  0  0  0  0  0  0
   38.4509   36.2641   30.3144 N   0  0  0  0  0  0  0  0  0  0  0  0
   38.0686   35.2070   29.4501 C   0  0  0  0  0  0  0  0  0  0  0  0
   38.6294   35.0832   28.0652 C   0  0  2  0  0  0  0  0  0  0  0  0
   38.2404   33.9572   27.3238 C   0  0  0  0  0  0  0  0  0  0  0  0
   38.3889   34.1003   25.8709 C   0  0  0  0  0  0  0  0  0  0  0  0
   39.4960   35.9712   27.6118 C   0  0  0  0  0  0  0  0  0  0  0  0
   39.8504   35.9866   26.2891 C   0  0  0  0  0  0  0  0  0  0  0  0
   40.8351   36.9843   25.8428 O   0  0  0  0  0  0  0  0  0  0  0  0
   39.1940   34.9798   25.3829 C   0  0  0  0  0  0  0  0  0  0  0  0
   40.7650   38.1907   26.4719 C   0  0  0  0  0  0  0  0  0  0  0  0
  1  2  1  0
  2  3  1  1
  2  4  1  0
  4  5  1  0
  4  6  1  0
  1  7  1  0
  6  8  1  0
  7  8  1  0
  6  9  1  0
  5 10  1  0
  9 10  1  0
 11 10  1  1
 11 12  1  0
 12 13  1  0
 11 14  1  0
 14 15  1  0
 15 16  1  0
 13 17  1  0
 15 17  1  0
 16 18  1  0
M  END
$$$$
34
     RDKit          3D

 18 21  0  0  0  0  0  0  0  0999 V2000
   36.0314   33.4808   30.8148 C   0  0  0  0  0  0  0  0  0  0  0  0
   36.8119   33.8690   29.8847 N   0  0  0  0  0  0  0  0  0  0  0  0
   35.9088   33.8600   31.9970 N   0  0  0  0  0  0  0  0  0  0  0  0
   37.1300   33.3035   28.7088 N   0  0  0  0  0  0  0  0  0  0  0  0
   36.7264   35.0600   32.1278 C   0  0  1  0  0  0  0  0  0  0  0  0
   37.6443   34.9652   30.1719 C   0  0  2  0  0  0  0  0  0  0  0  0
   36.6341   35.6340   33.4709 N   0  0  0  0  0  0  0  0  0  0  0  0
   37.5493   35.6767   31.4054 C   0  0  0  0  0  0  0  0  0  0  0  0
   38.3663   35.1689   28.9971 N   0  0  0  0  0  0  0  0  0  0  0  0
   38.2740   36.8661   31.8373 C   0  0  0  0  0  0  0  0  0  0  0  0
   38.1165   37.3256   32.9991 C   0  0  0  0  0  0  0  0  0  0  0  0
   37.2255   36.6636   33.8534 C   0  0  0  0  0  0  0  0  0  0  0  0
   38.0439   34.1402   28.1351 C   0  0  0  0  0  0  0  0  0  0  0  0
   38.6220   33.9071   26.7040 C   0  0  0  0  0  0  0  0  0  0  0  0
   39.2853   34.9468   26.2723 C   0  0  0  0  0  0  0  0  0  0  0  0
   37.3994   33.6180   25.9287 C   0  0  0  0  0  0  0  0  0  0  0  0
   38.9842   35.3448   24.9860 C   0  0  0  0  0  0  0  0  0  0  0  0
   37.7262   34.4623   24.6690 C   0  0  0  0  0  0  0  0  0  0  0  0
  1  2  1  0
  1  3  1  0
  2  4  1  0
  5  3  1  1
  2  6  1  0
  5  7  1  0
  5  8  1  0
  6  8  1  0
  6  9  1  6
  8 10  1  0
 10 11  1  0
  7 12  1  0
 11 12  1  0
  4 13  1  0
  9 13  1  0
 13 14  1  0
 14 15  1  0
 14 16  1  0
 15 17  1  0
 16 18  1  0
 17 18  1  0
M  END
$$$$
35
     RDKit          3D

 18 20  0  0  0  0  0  0  0  0999 V2000
   35.6127   33.7004   32.8725 C   0  0  0  0  0  0  0  0  0  0  0  0
   35.6052   33.5454   31.5115 C   0  0  0  0  0  0  0  0  0  0  0  0
   36.5683   34.2370   30.7412 C   0  0  2  0  0  0  0  0  0  0  0  0
   36.4252   34.7178   33.4776 C   0  0  0  0  0  0  0  0  0  0  0  0
   37.1809   35.5176   32.4409 C   0  0  0  0  0  0  0  0  0  0  0  0
   37.2920   35.2204   31.1908 C   0  0  0  0  0  0  0  0  0  0  0  0
   36.7133   33.8459   29.2223 C   0  0  0  0  0  0  0  0  0  0  0  0
   37.7499   34.5924   28.6051 N   0  0  0  0  0  0  0  0  0  0  0  0
   38.2314   35.9284   30.3256 C   0  0  0  0  0  0  0  0  0  0  0  0
   38.3519   35.5189   29.1721 C   0  0  0  0  0  0  0  0  0  0  0  0
   39.3148   36.2159   28.2021 C   0  0  0  0  0  0  0  0  0  0  0  0
   40.0090   37.3010   28.6350 N   0  0  0  0  0  0  0  0  0  0  0  0
   39.5476   35.8388   26.8861 N   0  0  0  0  0  0  0  0  0  0  0  0
   40.8778   37.9673   27.7522 C   0  0  1  0  0  0  0  0  0  0  0  0
   40.5640   36.8416   26.4355 C   0  0  0  0  0  0  0  0  0  0  0  0
   41.6062   38.9925   27.7344 C   0  0  0  0  0  0  0  0  0  0  0  0
   40.9401   40.2334   27.3189 C   0  0  0  0  0  0  0  0  0  0  0  0
   41.6380   41.3941   27.3260 C   0  0  0  0  0  0  0  0  0  0  0  0
  1  2  1  0
  3  2  1  6
  1  4  1  0
  4  5  1  0
  3  6  1  0
  5  6  1  0
  3  7  1  0
  7  8  1  0
  6  9  1  0
  8 10  1  0
  9 10  1  0
 10 11  1  0
 11 12  1  0
 11 13  2  0
 12 14  1  0
 13 15  1  0
 14 15  1  0
 14 16  1  6
 16 17  1  0
 17 18  2  0
M  END
$$$$
36
     RDKit          3D

 18 20  0  0  0  0  0  0  0  0999 V2000
   37.1198   36.5681   33.8826 N   0  0  0  0  0  0  0  0  0  0  0  0
   38.0011   37.2101   33.3742 C   0  0  0  0  0  0  0  0  0  0  0  0
   36.4509   35.5098   33.3610 C   0  0  0  0  0  0  0  0  0  0  0  0
   36.7336   35.1659   32.0781 N   0  0  0  0  0  0  0  0  0  0  0  0
   38.2524   36.8087   32.1412 N   0  0  0  0  0  0  0  0  0  0  0  0
   38.7586   38.3358   34.0701 C   0  0  0  0  0  0  0  0  0  0  0  0
   35.5579   34.7764   34.1283 N   0  0  0  0  0  0  0  0  0  0  0  0
   39.2721   37.6220   31.3473 C   0  0  0  0  0  0  0  0  0  0  0  0
   38.6914   38.4695   35.3398 O   0  0  0  0  0  0  0  0  0  0  0  0
   37.7076   35.8856   31.4181 C   0  0  1  0  0  0  0  0  0  0  0  0
   38.0608   35.4881   30.1399 C   0  0  2  0  0  0  0  0  0  0  0  0
   38.9837   36.2467   29.4098 C   0  0  0  0  0  0  0  0  0  0  0  0
   39.5872   37.2695   30.0501 N   0  0  0  0  0  0  0  0  0  0  0  0
   37.4892   34.3046   29.3462 C   0  0  0  0  0  0  0  0  0  0  0  0
   37.9783   34.0434   28.1117 C   0  0  2  0  0  0  0  0  0  0  0  0
   39.3973   36.0254   28.0688 C   0  0  0  0  0  0  0  0  0  0  0  0
   38.8217   34.8586   27.4417 C   0  0  0  0  0  0  0  0  0  0  0  0
   37.3218   32.6406   27.3781 Cl  0  0  0  0  0  0  0  0  0  0  0  0
  1  2  1  0
  1  3  1  0
  3  4  1  0
  2  5  1  0
  2  6  1  0
  3  7  1  0
  5  8  1  0
  6  9  1  0
 10  4  1  1
  5 10  1  0
 10 11  1  0
 11 12  1  0
  8 13  1  0
 12 13  1  0
 11 14  1  6
 14 15  1  0
 12 16  1  0
 15 17  1  0
 16 17  1  0
 15 18  1  6
M  END
$$$$
37
     RDKit          3D

 18 20  0  0  0  0  0  0  0  0999 V2000
   37.1198   36.5681   33.8826 N   0  0  0  0  0  0  0  0  0  0  0  0
   38.0011   37.2101   33.3742 C   0  0  0  0  0  0  0  0  0  0  0  0
   36.4509   35.5098   33.3610 C   0  0  0  0  0  0  0  0  0  0  0  0
   36.7336   35.1659   32.0781 N   0  0  0  0  0  0  0  0  0  0  0  0
   38.2524   36.8087   32.1412 N   0  0  0  0  0  0  0  0  0  0  0  0
   38.7586   38.3358   34.0701 C   0  0  0  0  0  0  0  0  0  0  0  0
   35.5579   34.7764   34.1283 N   0  0  0  0  0  0  0  0  0  0  0  0
   39.2721   37.6220   31.3473 C   0  0  0  0  0  0  0  0  0  0  0  0
   38.6914   38.4695   35.3398 O   0  0  0  0  0  0  0  0  0  0  0  0
   37.7076   35.8856   31.4181 C   0  0  1  0  0  0  0  0  0  0  0  0
   38.0608   35.4881   30.1399 C   0  0  2  0  0  0  0  0  0  0  0  0
   38.9837   36.2467   29.4098 C   0  0  0  0  0  0  0  0  0  0  0  0
   39.5872   37.2695   30.0501 N   0  0  0  0  0  0  0  0  0  0  0  0
   37.4892   34.3046   29.3462 C   0  0  0  0  0  0  0  0  0  0  0  0
   39.3839   36.0175   28.0959 N   0  0  0  0  0  0  0  0  0  0  0  0
   37.8803   33.9995   28.1660 C   0  0  2  0  0  0  0  0  0  0  0  0
   38.7665   34.8694   27.4538 C   0  0  0  0  0  0  0  0  0  0  0  0
   37.2140   32.6910   27.4194 Cl  0  0  0  0  0  0  0  0  0  0  0  0
  1  2  1  0
  1  3  1  0
  3  4  1  0
  2  5  1  0
  2  6  1  0
  3  7  1  0
  5  8  1  0
  6  9  1  0
 10  4  1  1
  5 10  1  0
 10 11  1  0
 11 12  1  0
  8 13  1  0
 12 13  1  0
 11 14  1  6
 12 15  1  0
 14 16  1  0
 15 17  1  0
 16 17  1  0
 16 18  1  6
M  END
$$$$
38
     RDKit          3D

 18 20  0  0  0  0  0  0  0  0999 V2000
   36.3367   35.0125   33.4818 N   0  0  0  0  0  0  0  0  0  0  0  0
   37.0967   36.0396   33.4903 C   0  0  2  0  0  0  0  0  0  0  0  0
   37.2888   36.7333   34.6755 N   0  0  0  0  0  0  0  0  0  0  0  0
   37.7166   36.6259   32.3527 C   0  0  2  0  0  0  0  0  0  0  0  0
   36.3010   34.4440   32.0977 C   0  0  2  0  0  0  0  0  0  0  0  0
   37.6691   35.9376   31.1466 C   0  0  2  0  0  0  0  0  0  0  0  0
   35.5336   33.2398   32.0498 N   0  0  0  0  0  0  0  0  0  0  0  0
   38.3653   37.8010   32.7462 N   0  0  0  0  0  0  0  0  0  0  0  0
   36.9663   34.8173   31.0705 N   0  0  0  0  0  0  0  0  0  0  0  0
   38.4102   36.3742   30.0568 N   0  0  0  0  0  0  0  0  0  0  0  0
   36.9048   36.5968   35.9865 C   0  0  0  0  0  0  0  0  0  0  0  0
   38.6642   35.5405   29.0133 C   0  0  0  0  0  0  0  0  0  0  0  0
   39.2454   36.0558   27.8209 C   0  0  0  0  0  0  0  0  0  0  0  0
   38.0972   37.8697   34.1553 C   0  0  0  0  0  0  0  0  0  0  0  0
   39.3160   35.3340   26.5794 C   0  0  0  0  0  0  0  0  0  0  0  0
   38.5664   34.0774   26.5344 C   0  0  0  0  0  0  0  0  0  0  0  0
   38.0083   33.4679   27.6468 C   0  0  0  0  0  0  0  0  0  0  0  0
   38.2648   34.0995   28.9078 C   0  0  0  0  0  0  0  0  0  0  0  0
  2  1  1  6
  2  3  1  0
  2  4  1  0
  1  5  1  0
  4  6  1  0
  5  7  1  1
  4  8  1  1
  5  9  1  0
  6  9  1  0
  6 10  1  1
  3 11  1  0
 10 12  1  0
 12 13  1  0
  3 14  1  0
  8 14  1  0
 13 15  1  0
 15 16  1  0
 16 17  1  0
 12 18  1  0
 17 18  1  0
M  END
$$$$
39
     RDKit          3D

 18 21  0  0  0  0  0  0  0  0999 V2000
   36.3367   35.0125   33.4818 C   0  0  0  0  0  0  0  0  0  0  0  0
   37.1885   36.0167   33.0675 C   0  0  1  0  0  0  0  0  0  0  0  0
   37.6540   36.9720   33.9528 N   0  0  0  0  0  0  0  0  0  0  0  0
   37.7714   36.0913   31.7397 C   0  0  2  0  0  0  0  0  0  0  0  0
   38.5596   37.6926   33.4861 C   0  0  2  0  0  0  0  0  0  0  0  0
   38.9939   38.7086   34.4488 N   0  0  0  0  0  0  0  0  0  0  0  0
   35.9156   34.0063   32.5186 C   0  0  0  0  0  0  0  0  0  0  0  0
   37.3423   35.0116   30.8195 C   0  0  2  0  0  0  0  0  0  0  0  0
   38.6017   36.9170   31.6025 C   0  0  2  0  0  0  0  0  0  0  0  0
   37.8077   35.0064   29.5201 N   0  0  0  0  0  0  0  0  0  0  0  0
   38.9762   37.8549   32.4268 N   0  0  0  0  0  0  0  0  0  0  0  0
   36.4234   34.0802   31.2269 N   0  0  0  0  0  0  0  0  0  0  0  0
   38.8937   36.9178   30.1036 N   0  0  0  0  0  0  0  0  0  0  0  0
   38.6307   36.0193   29.4041 C   0  0  2  0  0  0  0  0  0  0  0  0
   39.3255   36.0685   27.8525 C   0  0  0  0  0  0  0  0  0  0  0  0
   39.0209   34.9845   27.0782 C   0  0  0  0  0  0  0  0  0  0  0  0
   38.1227   33.9385   27.4770 C   0  0  0  0  0  0  0  0  0  0  0  0
   37.6020   34.0318   28.6722 C   0  0  0  0  0  0  0  0  0  0  0  0
  2  1  1  1
  2  3  1  0
  4  2  1  1
  3  5  1  0
  5  6  1  6
  1  7  1  0
  4  8  1  0
  4  9  1  0
  8 10  1  0
  5 11  1  0
  9 11  1  6
  7 12  1  0
  8 12  1  6
  9 13  1  0
 10 14  1  0
 13 14  1  0
 14 15  1  6
 15 16  1  0
 16 17  1  0
 10 18  1  0
 17 18  1  0
M  END
$$$$
4
     RDKit          3D

 14 15  0  0  0  0  0  0  0  0999 V2000
   36.3367   35.0125   33.4818 N   0  0  0  0  0  0  0  0  0  0  0  0
   36.2143   34.4258   32.3677 C   0  0  2  0  0  0  0  0  0  0  0  0
   35.4504   33.3534   32.0973 N   0  0  0  0  0  0  0  0  0  0  0  0
   37.0769   34.8972   31.2335 C   0  0  0  0  0  0  0  0  0  0  0  0
   37.0795   34.2716   30.0530 C   0  0  0  0  0  0  0  0  0  0  0  0
   37.7333   36.0412   31.6882 C   0  0  0  0  0  0  0  0  0  0  0  0
   36.4907   33.0863   29.8580 N   0  0  0  0  0  0  0  0  0  0  0  0
   37.5600   36.5416   32.9295 N   0  0  0  0  0  0  0  0  0  0  0  0
   36.9700   36.1207   33.7678 C   0  0  0  0  0  0  0  0  0  0  0  0
   36.5430   32.5022   28.6379 C   0  0  0  0  0  0  0  0  0  0  0  0
   37.9492   34.6957   29.0675 N   0  0  0  0  0  0  0  0  0  0  0  0
   38.6893   36.7452   30.7181 N   0  0  0  0  0  0  0  0  0  0  0  0
   38.0368   33.9689   27.9493 C   0  0  0  0  0  0  0  0  0  0  0  0
   37.4864   32.8318   27.7608 C   0  0  0  0  0  0  0  0  0  0  0  0
  1  2  1  0
  2  3  1  1
  2  4  1  0
  4  5  1  0
  4  6  1  0
  5  7  1  0
  6  8  1  0
  1  9  1  0
  8  9  1  0
  7 10  1  0
  5 11  1  0
  6 12  1  0
 11 13  1  0
 10 14  1  0
 13 14  1  0
M  END
$$$$
40
     RDKit          3D

 18 21  0  0  0  0  0  0  0  0999 V2000
   36.0314   33.4808   30.8148 C   0  0  0  0  0  0  0  0  0  0  0  0
   36.8119   33.8690   29.8847 N   0  0  0  0  0  0  0  0  0  0  0  0
   35.9088   33.8600   31.9970 N   0  0  0  0  0  0  0  0  0  0  0  0
   37.1300   33.3035   28.7088 N   0  0  0  0  0  0  0  0  0  0  0  0
   36.7264   35.0600   32.1278 C   0  0  1  0  0  0  0  0  0  0  0  0
   37.6443   34.9652   30.1719 C   0  0  2  0  0  0  0  0  0  0  0  0
   36.6341   35.6340   33.4709 N   0  0  0  0  0  0  0  0  0  0  0  0
   37.5493   35.6767   31.4054 C   0  0  0  0  0  0  0  0  0  0  0  0
   38.3663   35.1689   28.9971 N   0  0  0  0  0  0  0  0  0  0  0  0
   38.2740   36.8661   31.8373 C   0  0  0  0  0  0  0  0  0  0  0  0
   38.1165   37.3256   32.9991 C   0  0  0  0  0  0  0  0  0  0  0  0
   37.2255   36.6636   33.8534 C   0  0  0  0  0  0  0  0  0  0  0  0
   38.0439   34.1402   28.1351 C   0  0  0  0  0  0  0  0  0  0  0  0
   38.6220   33.9071   26.7040 C   0  0  2  0  0  0  0  0  0  0  0  0
   39.2853   34.9468   26.2723 C   0  0  0  0  0  0  0  0  0  0  0  0
   37.3994   33.6180   25.9287 C   0  0  0  0  0  0  0  0  0  0  0  0
   38.9842   35.3448   24.9860 O   0  0  0  0  0  0  0  0  0  0  0  0
   37.6176   34.6657   24.7678 C   0  0  0  0  0  0  0  0  0  0  0  0
  1  2  1  0
  1  3  1  0
  2  4  1  0
  5  3  1  1
  2  6  1  0
  5  7  1  0
  5  8  1  0
  6  8  1  0
  6  9  1  6
  8 10  1  0
 10 11  1  0
  7 12  1  0
 11 12  1  0
  4 13  1  0
  9 13  1  0
 14 13  1  1
 14 15  1  0
 14 16  1  0
 15 17  1  0
 16 18  1  0
 17 18  1  0
M  END
$$$$
41
     RDKit          3D

 19 21  0  0  0  0  0  0  0  0999 V2000
   37.7914   37.3496   33.1079 C   0  0  1  0  0  0  0  0  0  0  0  0
   37.2353   36.2486   33.3076 N   0  0  0  0  0  0  0  0  0  0  0  0
   36.9627   35.3506   32.3764 C   0  0  2  0  0  0  0  0  0  0  0  0
   36.1904   34.1790   32.5907 N   0  0  0  0  0  0  0  0  0  0  0  0
   38.2351   38.1273   34.2077 O   0  0  0  0  0  0  0  0  0  0  0  0
   39.6413   38.1625   34.4503 C   0  0  0  0  0  0  0  0  0  0  0  0
   35.8934   33.4461   31.5088 C   0  0  0  0  0  0  0  0  0  0  0  0
   36.4461   33.7634   30.2791 N   0  0  0  0  0  0  0  0  0  0  0  0
   38.5233   37.0432   31.8382 C   0  0  0  0  0  0  0  0  0  0  0  0
   37.6936   35.5948   31.2304 C   0  0  2  0  0  0  0  0  0  0  0  0
   37.5406   34.9897   30.1268 C   0  0  1  0  0  0  0  0  0  0  0  0
   38.2079   35.1647   28.9054 C   0  0  2  0  0  0  0  0  0  0  0  0
   38.1311   34.2627   27.8926 C   0  0  2  0  0  0  0  0  0  0  0  0
   39.1137   36.1067   28.7848 C   0  0  0  0  0  0  0  0  0  0  0  0
   38.7305   34.4666   26.8052 C   0  0  1  0  0  0  0  0  0  0  0  0
   37.2903   33.0257   27.8685 O   0  0  0  0  0  0  0  0  0  0  0  0
   38.5060   33.5267   25.5603 O   0  0  0  0  0  0  0  0  0  0  0  0
   39.5074   35.6550   26.4781 C   0  0  0  0  0  0  0  0  0  0  0  0
   39.7444   36.4202   27.5737 C   0  0  0  0  0  0  0  0  0  0  0  0
  1  2  1  0
  3  2  1  1
  3  4  1  0
  1  5  1  1
  5  6  1  0
  4  7  1  0
  7  8  1  0
  1  9  1  0
  3 10  1  0
 10  9  1  6
 11  8  1  1
 10 11  1  0
 11 12  1  0
 12 13  1  0
 12 14  1  1
 13 15  1  0
 13 16  1  6
 15 17  1  6
 15 18  1  0
 14 19  1  0
 18 19  1  0
M  END
$$$$
42
     RDKit          3D

 19 21  0  0  0  0  0  0  0  0999 V2000
   35.4572   33.1894   32.3771 C   0  0  0  0  0  0  0  0  0  0  0  0
   35.8281   33.6660   31.1582 C   0  0  0  0  0  0  0  0  0  0  0  0
   36.9048   34.6430   31.0604 C   0  0  1  0  0  0  0  0  0  0  0  0
   37.5582   35.0153   29.8802 N   0  0  0  0  0  0  0  0  0  0  0  0
   37.3393   35.5428   32.2031 N   0  0  0  0  0  0  0  0  0  0  0  0
   37.9110   36.5229   31.6362 C   0  0  2  0  0  0  0  0  0  0  0  0
   38.2639   36.1967   30.2679 C   0  0  0  0  0  0  0  0  0  0  0  0
   38.7603   37.6647   32.1425 N   0  0  0  0  0  0  0  0  0  0  0  0
   39.1727   37.1266   29.7428 N   0  0  0  0  0  0  0  0  0  0  0  0
   37.6097   34.3922   28.6628 C   0  0  0  0  0  0  0  0  0  0  0  0
   38.3215   34.9630   27.6180 C   0  0  1  0  0  0  0  0  0  0  0  0
   38.7534   38.2459   33.2644 C   0  0  0  0  0  0  0  0  0  0  0  0
   38.3583   34.1644   26.4310 C   0  0  0  0  0  0  0  0  0  0  0  0
   38.7640   34.8449   25.3094 C   0  0  0  0  0  0  0  0  0  0  0  0
   37.0586   33.2444   28.4902 O   0  0  0  0  0  0  0  0  0  0  0  0
   39.3685   37.9517   30.8170 C   0  0  0  0  0  0  0  0  0  0  0  0
   39.2432   36.2155   25.5136 C   0  0  0  0  0  0  0  0  0  0  0  0
   38.6698   36.2915   27.4704 N   0  0  0  0  0  0  0  0  0  0  0  0
   39.3575   36.6773   26.4128 C   0  0  0  0  0  0  0  0  0  0  0  0
  1  2  1  0
  3  2  1  6
  3  4  1  0
  3  5  1  0
  6  5  1  1
  4  7  1  0
  6  7  1  0
  6  8  1  0
  7  9  1  0
  4 10  1  0
 11 10  1  6
  8 12  1  0
 11 13  1  0
 13 14  1  0
 10 15  2  0
  8 16  1  0
  9 16  1  0
 14 17  1  0
 11 18  1  0
 17 19  1  0
 18 19  1  0
M  END
$$$$
43
     RDKit          3D

 19 22  0  0  0  0  0  0  0  0999 V2000
   35.5247   33.4398   32.8856 C   0  0  0  0  0  0  0  0  0  0  0  0
   35.5784   33.4754   31.5143 C   0  0  0  0  0  0  0  0  0  0  0  0
   36.8123   34.0651   31.0476 C   0  0  1  0  0  0  0  0  0  0  0  0
   36.9795   34.0849   29.5649 C   0  0  2  0  0  0  0  0  0  0  0  0
   36.0261   34.6804   33.2378 C   0  0  0  0  0  0  0  0  0  0  0  0
   37.2401   35.3172   31.5910 C   0  0  1  0  0  0  0  0  0  0  0  0
   36.9701   35.4750   32.8801 C   0  0  0  0  0  0  0  0  0  0  0  0
   38.0779   35.9894   30.6187 C   0  0  2  0  0  0  0  0  0  0  0  0
   37.0053   33.0298   28.7206 N   0  0  0  0  0  0  0  0  0  0  0  0
   38.0572   35.1286   29.4379 C   0  0  2  0  0  0  0  0  0  0  0  0
   38.8794   35.4456   28.2401 C   0  0  0  0  0  0  0  0  0  0  0  0
   39.6185   36.5730   28.0513 N   0  0  0  0  0  0  0  0  0  0  0  0
   39.7307   37.4614   29.0543 C   0  0  1  0  0  0  0  0  0  0  0  0
   39.1186   34.6941   27.0540 O   0  0  0  0  0  0  0  0  0  0  0  0
   40.4837   36.7790   26.8349 C   0  0  0  0  0  0  0  0  0  0  0  0
   39.0217   37.1696   30.3490 C   0  0  0  0  0  0  0  0  0  0  0  0
   41.7786   37.0139   27.2123 C   0  0  0  0  0  0  0  0  0  0  0  0
   41.8705   38.1384   28.1924 C   0  0  0  0  0  0  0  0  0  0  0  0
   41.0607   37.8348   29.4538 C   0  0  0  0  0  0  0  0  0  0  0  0
  1  2  1  0
  3  2  1  6
  3  4  1  0
  1  5  1  0
  3  6  1  0
  5  7  1  0
  6  7  1  1
  6  8  1  0
  4  9  1  1
  4 10  1  0
  8 10  1  0
 10 11  1  6
 11 12  1  0
 12 13  1  0
 11 14  2  0
 12 15  1  0
  8 16  1  1
 13 16  1  1
 15 17  1  0
 17 18  1  0
 13 19  1  0
 18 19  1  0
M  END
$$$$
44
     RDKit          3D

 19 22  0  0  0  0  0  0  0  0999 V2000
   36.0314   33.4808   30.8148 C   0  0  0  0  0  0  0  0  0  0  0  0
   36.1755   34.0005   32.0158 C   0  0  0  0  0  0  0  0  0  0  0  0
   36.8910   35.1675   32.2236 C   0  0  0  0  0  0  0  0  0  0  0  0
   37.0706   33.9932   29.9054 C   0  0  2  0  0  0  0  0  0  0  0  0
   37.8325   35.0803   30.0836 C   0  0  1  0  0  0  0  0  0  0  0  0
   37.1755   33.2421   28.5761 N   0  0  0  0  0  0  0  0  0  0  0  0
   37.7875   35.6413   31.3370 C   0  0  0  0  0  0  0  0  0  0  0  0
   38.7525   35.4666   29.0094 C   0  0  1  0  0  0  0  0  0  0  0  0
   37.9296   33.7942   27.6339 C   0  0  0  0  0  0  0  0  0  0  0  0
   38.6260   34.6966   27.7256 C   0  0  1  0  0  0  0  0  0  0  0  0
   39.4098   36.6969   29.0772 N   0  0  0  0  0  0  0  0  0  0  0  0
   39.7304   37.2989   28.0989 C   0  0  1  0  0  0  0  0  0  0  0  0
   40.4775   38.5635   28.1711 C   0  0  0  0  0  0  0  0  0  0  0  0
   39.5811   36.8428   26.7093 C   0  0  0  0  0  0  0  0  0  0  0  0
   39.4038   35.3714   26.6954 C   0  0  0  0  0  0  0  0  0  0  0  0
   40.0640   39.6557   27.4355 N   0  0  0  0  0  0  0  0  0  0  0  0
   41.4084   38.8207   29.0465 N   0  0  0  0  0  0  0  0  0  0  0  0
   40.8958   40.8157   27.7297 C   0  0  0  0  0  0  0  0  0  0  0  0
   41.9032   40.0782   28.9968 C   0  0  0  0  0  0  0  0  0  0  0  0
  1  2  1  0
  2  3  1  0
  4  1  1  6
  4  5  1  0
  4  6  1  0
  3  7  1  0
  5  7  1  1
  5  8  1  0
  6  9  1  0
  8 10  1  0
 10  9  1  6
  8 11  1  6
 11 12  1  0
 12 13  1  1
 12 14  1  0
 10 15  1  0
 14 15  1  0
 13 16  1  0
 13 17  2  0
 16 18  1  0
 17 19  1  0
 18 19  2  0
M  END
$$$$
45
     RDKit          3D

 19 21  0  0  0  0  0  0  0  0999 V2000
   36.3367   35.0125   33.4818 C   0  0  0  0  0  0  0  0  0  0  0  0
   37.1885   36.0167   33.0675 N   0  0  0  0  0  0  0  0  0  0  0  0
   37.6289   36.9486   33.9010 C   0  0  2  0  0  0  0  0  0  0  0  0
   35.9570   34.9284   34.6498 N   0  0  0  0  0  0  0  0  0  0  0  0
   38.5893   37.8334   33.4140 N   0  0  0  0  0  0  0  0  0  0  0  0
   37.7639   36.3048   31.7668 C   0  0  2  0  0  0  0  0  0  0  0  0
   37.4799   37.2057   35.3741 C   0  0  0  0  0  0  0  0  0  0  0  0
   37.6761   35.4165   30.7032 C   0  0  0  0  0  0  0  0  0  0  0  0
   38.2900   35.5349   29.4963 C   0  0  2  0  0  0  0  0  0  0  0  0
   38.7325   37.3244   32.0192 N   0  0  0  0  0  0  0  0  0  0  0  0
   35.9597   34.1028   32.5244 N   0  0  0  0  0  0  0  0  0  0  0  0
   38.1090   34.5455   28.5103 C   0  0  0  0  0  0  0  0  0  0  0  0
   39.2397   36.4664   29.2099 C   0  0  0  0  0  0  0  0  0  0  0  0
   38.7104   34.5824   27.4920 N   0  0  0  0  0  0  0  0  0  0  0  0
   37.2135   33.2982   28.5934 C   0  0  0  0  0  0  0  0  0  0  0  0
   39.8555   36.4458   27.9674 C   0  0  0  0  0  0  0  0  0  0  0  0
   39.6137   35.5294   27.0269 C   0  0  0  0  0  0  0  0  0  0  0  0
   37.4617   32.7183   27.3154 C   0  0  0  0  0  0  0  0  0  0  0  0
   38.4322   33.5014   26.5034 C   0  0  0  0  0  0  0  0  0  0  0  0
  1  2  1  0
  2  3  1  0
  1  4  2  0
  3  5  1  0
  2  6  1  0
  3  7  1  1
  6  8  1  1
  9  8  1  1
  5 10  1  0
  6 10  1  0
  1 11  1  0
  9 12  1  0
  9 13  1  0
 12 14  1  0
 12 15  1  0
 13 16  1  0
 14 17  1  0
 16 17  1  0
 15 18  1  0
 14 19  1  0
 18 19  1  0
M  END
$$$$
46
     RDKit          3D

 19 21  0  0  0  0  0  0  0  0999 V2000
   36.3367   35.0125   33.4818 C   0  0  0  0  0  0  0  0  0  0  0  0
   37.1885   36.0167   33.0675 N   0  0  0  0  0  0  0  0  0  0  0  0
   37.6289   36.9486   33.9010 C   0  0  2  0  0  0  0  0  0  0  0  0
   35.9570   34.9284   34.6498 N   0  0  0  0  0  0  0  0  0  0  0  0
   38.5893   37.8334   33.4140 N   0  0  0  0  0  0  0  0  0  0  0  0
   37.7639   36.3048   31.7668 C   0  0  2  0  0  0  0  0  0  0  0  0
   37.4799   37.2057   35.3741 C   0  0  0  0  0  0  0  0  0  0  0  0
   37.6761   35.4165   30.7032 C   0  0  0  0  0  0  0  0  0  0  0  0
   38.2900   35.5349   29.4963 C   0  0  2  0  0  0  0  0  0  0  0  0
   38.7325   37.3244   32.0192 N   0  0  0  0  0  0  0  0  0  0  0  0
   35.9597   34.1028   32.5244 N   0  0  0  0  0  0  0  0  0  0  0  0
   38.1090   34.5455   28.5103 C   0  0  0  0  0  0  0  0  0  0  0  0
   39.2397   36.4664   29.2099 C   0  0  0  0  0  0  0  0  0  0  0  0
   38.7104   34.5824   27.4920 N   0  0  0  0  0  0  0  0  0  0  0  0
   37.2135   33.2982   28.5934 C   0  0  0  0  0  0  0  0  0  0  0  0
   39.8555   36.4458   27.9674 C   0  0  0  0  0  0  0  0  0  0  0  0
   39.6137   35.5294   27.0269 C   0  0  0  0  0  0  0  0  0  0  0  0
   37.4617   32.7183   27.3154 C   0  0  0  0  0  0  0  0  0  0  0  0
   38.2889   33.4799   26.7046 N   0  0  0  0  0  0  0  0  0  0  0  0
  1  2  1  0
  2  3  1  0
  1  4  2  0
  3  5  1  0
  2  6  1  0
  3  7  1  1
  6  8  1  1
  9  8  1  1
  5 10  1  0
  6 10  1  0
  1 11  1  0
  9 12  1  0
  9 13  1  0
 12 14  1  0
 12 15  1  0
 13 16  1  0
 14 17  1  0
 16 17  1  0
 15 18  1  0
 14 19  1  0
 18 19  1  0
M  END
$$$$
47
     RDKit          3D

 19 21  0  0  0  0  0  0  0  0999 V2000
   36.0314   33.4808   30.8148 C   0  0  0  0  0  0  0  0  0  0  0  0
   36.1755   34.0005   32.0158 C   0  0  0  0  0  0  0  0  0  0  0  0
   36.8910   35.1675   32.2236 C   0  0  0  0  0  0  0  0  0  0  0  0
   37.0706   33.9932   29.9054 C   0  0  2  0  0  0  0  0  0  0  0  0
   37.8325   35.0803   30.0836 C   0  0  1  0  0  0  0  0  0  0  0  0
   37.1755   33.2421   28.5761 N   0  0  0  0  0  0  0  0  0  0  0  0
   37.7875   35.6413   31.3370 C   0  0  0  0  0  0  0  0  0  0  0  0
   38.7525   35.4666   29.0094 C   0  0  1  0  0  0  0  0  0  0  0  0
   37.9296   33.7942   27.6339 C   0  0  1  0  0  0  0  0  0  0  0  0
   38.6260   34.6966   27.7256 C   0  0  2  0  0  0  0  0  0  0  0  0
   39.4098   36.6969   29.0772 N   0  0  0  0  0  0  0  0  0  0  0  0
   39.7304   37.2989   28.0989 C   0  0  1  0  0  0  0  0  0  0  0  0
   39.6229   35.2122   26.6553 C   0  0  0  0  0  0  0  0  0  0  0  0
   37.8408   32.9386   26.3405 C   0  0  0  0  0  0  0  0  0  0  0  0
   40.4618   38.5329   28.1126 C   0  0  0  0  0  0  0  0  0  0  0  0
   40.2900   36.4338   26.9010 C   0  0  0  0  0  0  0  0  0  0  0  0
   41.2063   38.9116   29.0240 O   0  0  0  0  0  0  0  0  0  0  0  0
   40.1070   39.4682   27.1809 O   0  0  0  0  0  0  0  0  0  0  0  0
   38.7991   40.1628   27.1164 C   0  0  0  0  0  0  0  0  0  0  0  0
  1  2  1  0
  2  3  1  0
  4  1  1  6
  4  5  1  0
  4  6  1  0
  3  7  1  0
  5  7  1  1
  5  8  1  0
  6  9  1  0
  8 10  1  0
  9 10  1  0
  8 11  1  6
 11 12  1  0
 10 13  1  1
  9 14  1  1
 12 15  1  1
 12 16  1  0
 13 16  1  0
 15 17  2  0
 15 18  1  0
 18 19  1  0
M  END
$$$$
48
     RDKit          3D

 19 22  0  0  0  0  0  0  0  0999 V2000
   37.7914   37.3496   33.1079 C   0  0  2  0  0  0  0  0  0  0  0  0
   38.3958   37.3825   31.9755 N   0  0  0  0  0  0  0  0  0  0  0  0
   38.2580   38.2193   34.1317 N   0  0  0  0  0  0  0  0  0  0  0  0
   38.0878   36.6075   31.2316 C   0  0  1  0  0  0  0  0  0  0  0  0
   37.1533   36.1784   33.5308 N   0  0  0  0  0  0  0  0  0  0  0  0
   36.6252   36.0605   34.8434 C   0  0  0  0  0  0  0  0  0  0  0  0
   37.0782   36.9842   35.8220 N   0  0  0  0  0  0  0  0  0  0  0  0
   37.8775   37.9401   35.4344 C   0  0  0  0  0  0  0  0  0  0  0  0
   38.6483   36.5061   29.8235 N   0  0  0  0  0  0  0  0  0  0  0  0
   37.0678   35.5180   32.4271 C   0  0  0  0  0  0  0  0  0  0  0  0
   37.2946   35.4967   31.3508 C   0  0  2  0  0  0  0  0  0  0  0  0
   37.1277   34.5289   30.2257 C   0  0  0  0  0  0  0  0  0  0  0  0
   38.0300   34.8551   29.2531 C   0  0  1  0  0  0  0  0  0  0  0  0
   35.9273   34.3590   32.9750 O   0  0  0  0  0  0  0  0  0  0  0  0
   39.4507   37.2616   29.0467 C   0  0  0  0  0  0  0  0  0  0  0  0
   39.7687   36.7730   27.8003 C   0  0  0  0  0  0  0  0  0  0  0  0
   39.3472   35.4727   27.2582 C   0  0  0  0  0  0  0  0  0  0  0  0
   38.5949   34.6431   28.0156 C   0  0  0  0  0  0  0  0  0  0  0  0
   38.1957   33.1481   27.4734 C   0  0  0  0  0  0  0  0  0  0  0  0
  1  2  1  6
  1  3  1  0
  4  2  1  1
  1  5  1  0
  5  6  1  0
  6  7  1  0
  3  8  1  0
  7  8  1  0
  4  9  1  0
  5 10  1  0
  4 11  1  0
 10 11  1  0
 11 12  1  1
  9 13  1  0
 13 12  1  6
 10 14  2  0
  9 15  1  0
 15 16  1  0
 16 17  1  0
 13 18  1  0
 17 18  1  0
 18 19  1  0
M  END
$$$$
49
     RDKit          3D

 19 22  0  0  0  0  0  0  0  0999 V2000
   37.7914   37.3496   33.1079 C   0  0  1  0  0  0  0  0  0  0  0  0
   37.2353   36.2486   33.3076 N   0  0  0  0  0  0  0  0  0  0  0  0
   36.9627   35.3506   32.3764 C   0  0  2  0  0  0  0  0  0  0  0  0
   36.1904   34.1790   32.5907 N   0  0  0  0  0  0  0  0  0  0  0  0
   38.2351   38.1273   34.2077 O   0  0  0  0  0  0  0  0  0  0  0  0
   39.6413   38.1625   34.4503 C   0  0  0  0  0  0  0  0  0  0  0  0
   35.8934   33.4461   31.5088 C   0  0  0  0  0  0  0  0  0  0  0  0
   36.4461   33.7634   30.2791 N   0  0  0  0  0  0  0  0  0  0  0  0
   38.5233   37.0432   31.8382 C   0  0  1  0  0  0  0  0  0  0  0  0
   37.6936   35.5948   31.2304 C   0  0  2  0  0  0  0  0  0  0  0  0
   37.5406   34.9897   30.1268 C   0  0  1  0  0  0  0  0  0  0  0  0
   38.2079   35.1647   28.9054 C   0  0  2  0  0  0  0  0  0  0  0  0
   38.1311   34.2627   27.8926 C   0  0  0  0  0  0  0  0  0  0  0  0
   39.1137   36.1067   28.7848 C   0  0  2  0  0  0  0  0  0  0  0  0
   38.7305   34.4666   26.8052 C   0  0  0  0  0  0  0  0  0  0  0  0
   39.3532   37.1610   29.8324 N   0  0  0  0  0  0  0  0  0  0  0  0
   39.4149   35.5622   26.6616 C   0  0  0  0  0  0  0  0  0  0  0  0
   39.6959   36.4205   27.5867 N   0  0  0  0  0  0  0  0  0  0  0  0
   39.2671   37.6178   31.0023 C   0  0  0  0  0  0  0  0  0  0  0  0
  1  2  1  0
  3  2  1  1
  3  4  1  0
  1  5  1  1
  5  6  1  0
  4  7  1  0
  7  8  1  0
  1  9  1  0
 10  3  1  6
  9 10  1  0
 11  8  1  1
 10 11  1  0
 11 12  1  0
 12 13  1  1
 12 14  1  0
 13 15  1  0
 14 16  1  6
 15 17  1  0
 14 18  1  0
 17 18  1  0
  9 19  1  6
 16 19  1  0
M  END
$$$$
5
     RDKit          3D

 14 15  0  0  0  0  0  0  0  0999 V2000
   36.3367   35.0125   33.4818 N   0  0  0  0  0  0  0  0  0  0  0  0
   36.2143   34.4258   32.3677 C   0  0  2  0  0  0  0  0  0  0  0  0
   35.4504   33.3534   32.0973 N   0  0  0  0  0  0  0  0  0  0  0  0
   37.0769   34.8972   31.2335 C   0  0  0  0  0  0  0  0  0  0  0  0
   37.0795   34.2716   30.0530 C   0  0  0  0  0  0  0  0  0  0  0  0
   37.7333   36.0412   31.6882 C   0  0  0  0  0  0  0  0  0  0  0  0
   37.0859   36.2159   33.4637 C   0  0  0  0  0  0  0  0  0  0  0  0
   37.8198   36.6844   32.6852 N   0  0  0  0  0  0  0  0  0  0  0  0
   38.4509   36.2641   30.3144 N   0  0  0  0  0  0  0  0  0  0  0  0
   38.0686   35.2070   29.4501 C   0  0  0  0  0  0  0  0  0  0  0  0
   38.6294   35.0832   28.0652 C   0  0  0  0  0  0  0  0  0  0  0  0
   38.2404   33.9572   27.3238 C   0  0  0  0  0  0  0  0  0  0  0  0
   38.3889   34.1003   25.8709 C   0  0  0  0  0  0  0  0  0  0  0  0
   37.3120   34.4135   25.0740 O   0  0  0  0  0  0  0  0  0  0  0  0
  1  2  1  0
  2  3  1  1
  2  4  1  0
  4  5  1  0
  4  6  1  0
  1  7  1  0
  6  8  1  0
  7  8  1  0
  6  9  1  0
  5 10  1  0
  9 10  1  0
 10 11  1  0
 11 12  1  0
 12 13  1  0
 13 14  1  0
M  END
$$$$
50
     RDKit          3D

 19 22  0  0  0  0  0  0  0  0999 V2000
   37.1198   36.5681   33.8826 N   0  0  0  0  0  0  0  0  0  0  0  0
   38.0011   37.2101   33.3742 C   0  0  0  0  0  0  0  0  0  0  0  0
   38.1071   37.0345   32.2191 N   0  0  0  0  0  0  0  0  0  0  0  0
   37.3430   35.9322   31.7692 C   0  0  1  0  0  0  0  0  0  0  0  0
   38.9422   37.7347   31.1948 C   0  0  1  0  0  0  0  0  0  0  0  0
   37.4506   35.2756   30.5732 N   0  0  0  0  0  0  0  0  0  0  0  0
   36.7925   35.5251   33.0092 C   0  0  2  0  0  0  0  0  0  0  0  0
   35.8691   34.3979   33.1954 C   0  0  0  0  0  0  0  0  0  0  0  0
   38.1816   35.8428   29.5895 C   0  0  1  0  0  0  0  0  0  0  0  0
   39.6277   38.7166   31.4653 O   0  0  0  0  0  0  0  0  0  0  0  0
   38.9682   36.9973   29.9017 C   0  0  1  0  0  0  0  0  0  0  0  0
   38.2813   35.1788   28.3540 C   0  0  1  0  0  0  0  0  0  0  0  0
   39.5579   37.4203   28.7972 C   0  0  0  0  0  0  0  0  0  0  0  0
   39.7274   36.8187   27.5719 N   0  0  0  0  0  0  0  0  0  0  0  0
   37.5420   33.8925   28.2135 C   0  0  0  0  0  0  0  0  0  0  0  0
   38.8961   35.6995   27.2921 C   0  0  1  0  0  0  0  0  0  0  0  0
   37.6458   33.3176   26.9377 C   0  0  0  0  0  0  0  0  0  0  0  0
   38.3566   33.8699   26.0478 C   0  0  0  0  0  0  0  0  0  0  0  0
   39.0770   35.0748   26.0997 C   0  0  0  0  0  0  0  0  0  0  0  0
  1  2  1  0
  2  3  1  0
  3  4  1  0
  3  5  1  0
  4  6  1  1
  1  7  1  0
  4  7  1  0
  7  8  1  6
  9  6  1  1
  5 10  1  1
  5 11  1  0
  9 11  1  0
  9 12  1  0
 11 13  1  6
 13 14  1  0
 12 15  1  6
 12 16  1  0
 14 16  1  0
 15 17  1  0
 17 18  1  0
 16 19  1  1
 18 19  1  0
M  END
$$$$
51
     RDKit          3D

 19 22  0  0  0  0  0  0  0  0999 V2000
   36.3367   35.0125   33.4818 N   0  0  0  0  0  0  0  0  0  0  0  0
   36.2143   34.4258   32.3677 C   0  0  2  0  0  0  0  0  0  0  0  0
   35.4504   33.3534   32.0973 N   0  0  0  0  0  0  0  0  0  0  0  0
   37.0769   34.8972   31.2335 C   0  0  0  0  0  0  0  0  0  0  0  0
   37.0795   34.2716   30.0530 C   0  0  0  0  0  0  0  0  0  0  0  0
   37.7333   36.0412   31.6882 C   0  0  0  0  0  0  0  0  0  0  0  0
   37.0859   36.2159   33.4637 C   0  0  0  0  0  0  0  0  0  0  0  0
   37.8198   36.6844   32.6852 N   0  0  0  0  0  0  0  0  0  0  0  0
   38.4509   36.2641   30.3144 N   0  0  0  0  0  0  0  0  0  0  0  0
   38.0686   35.2070   29.4501 C   0  0  0  0  0  0  0  0  0  0  0  0
   39.4331   37.2277   29.9500 C   0  0  0  0  0  0  0  0  0  0  0  0
   38.6529   35.1593   28.0960 C   0  0  0  0  0  0  0  0  0  0  0  0
   39.5985   36.0949   27.7217 C   0  0  2  0  0  0  0  0  0  0  0  0
   39.9352   37.1234   28.6276 C   0  0  0  0  0  0  0  0  0  0  0  0
   38.2423   34.0807   27.2012 C   0  0  1  0  0  0  0  0  0  0  0  0
   39.7956   36.0360   26.3645 C   0  0  0  0  0  0  0  0  0  0  0  0
   37.3059   33.0943   27.6230 O   0  0  0  0  0  0  0  0  0  0  0  0
   38.6763   34.1618   25.9383 C   0  0  0  0  0  0  0  0  0  0  0  0
   39.5205   35.0696   25.4990 C   0  0  0  0  0  0  0  0  0  0  0  0
  1  2  1  0
  2  3  1  1
  2  4  1  0
  4  5  1  0
  4  6  1  0
  1  7  1  0
  6  8  1  0
  7  8  1  0
  6  9  1  0
  5 10  1  0
  9 10  1  0
  9 11  1  0
 10 12  1  0
 12 13  1  0
 11 14  1  0
 13 14  1  6
 12 15  1  0
 13 16  1  0
 15 17  1  6
 15 18  1  0
 16 19  1  0
 18 19  1  0
M  END
$$$$
52
     RDKit          3D

 19 21  0  0  0  0  0  0  0  0999 V2000
   35.5247   33.4398   32.8856 C   0  0  0  0  0  0  0  0  0  0  0  0
   35.5784   33.4754   31.5143 C   0  0  0  0  0  0  0  0  0  0  0  0
   36.8123   34.0651   31.0476 C   0  0  1  0  0  0  0  0  0  0  0  0
   36.9795   34.0849   29.5649 C   0  0  2  0  0  0  0  0  0  0  0  0
   36.0261   34.6804   33.2378 C   0  0  0  0  0  0  0  0  0  0  0  0
   37.2401   35.3172   31.5910 C   0  0  1  0  0  0  0  0  0  0  0  0
   36.9701   35.4750   32.8801 C   0  0  0  0  0  0  0  0  0  0  0  0
   38.0779   35.9894   30.6187 C   0  0  2  0  0  0  0  0  0  0  0  0
   37.0053   33.0298   28.7206 N   0  0  0  0  0  0  0  0  0  0  0  0
   38.0572   35.1286   29.4379 C   0  0  2  0  0  0  0  0  0  0  0  0
   38.8794   35.4456   28.2401 C   0  0  0  0  0  0  0  0  0  0  0  0
   39.6185   36.5730   28.0513 N   0  0  0  0  0  0  0  0  0  0  0  0
   39.7307   37.4614   29.0543 C   0  0  0  0  0  0  0  0  0  0  0  0
   39.1186   34.6941   27.0540 O   0  0  0  0  0  0  0  0  0  0  0  0
   40.4837   36.7790   26.8349 C   0  0  2  0  0  0  0  0  0  0  0  0
   39.0217   37.1696   30.3490 C   0  0  0  0  0  0  0  0  0  0  0  0
   41.7786   37.0139   27.2123 C   0  0  0  0  0  0  0  0  0  0  0  0
   42.5219   37.4145   26.0964 O   0  0  0  0  0  0  0  0  0  0  0  0
   39.9196   37.9544   26.0897 O   0  0  0  0  0  0  0  0  0  0  0  0
  1  2  1  0
  3  2  1  6
  3  4  1  0
  1  5  1  0
  3  6  1  0
  5  7  1  0
  6  7  1  1
  6  8  1  0
  4  9  1  1
  4 10  1  0
  8 10  1  0
 10 11  1  6
 11 12  1  0
 12 13  1  0
 11 14  2  0
 12 15  1  0
  8 16  1  1
 13 16  1  0
 15 17  1  0
 17 18  1  0
 15 19  1  1
M  END
$$$$
53
     RDKit          3D

 19 20  0  0  0  0  0  0  0  0999 V2000
   36.0314   33.4808   30.8148 C   0  0  0  0  0  0  0  0  0  0  0  0
   36.1755   34.0005   32.0158 C   0  0  0  0  0  0  0  0  0  0  0  0
   35.4085   33.5611   33.1833 O   0  0  0  0  0  0  0  0  0  0  0  0
   36.8321   35.4021   32.0591 C   0  0  0  0  0  0  0  0  0  0  0  0
   37.0823   34.0198   29.8453 C   0  0  0  0  0  0  0  0  0  0  0  0
   37.8685   35.1017   29.9905 C   0  0  0  0  0  0  0  0  0  0  0  0
   38.7832   35.5778   29.0264 C   0  0  1  0  0  0  0  0  0  0  0  0
   39.4252   36.7475   29.2103 N   0  0  0  0  0  0  0  0  0  0  0  0
   40.0917   37.4326   28.1352 C   0  0  1  0  0  0  0  0  0  0  0  0
   37.7374   35.8378   31.1960 C   0  0  0  0  0  0  0  0  0  0  0  0
   39.8460   36.9364   26.8465 C   0  0  0  0  0  0  0  0  0  0  0  0
   39.9750   38.9355   28.2308 C   0  0  0  0  0  0  0  0  0  0  0  0
   39.2459   34.9243   27.8038 N   0  0  0  0  0  0  0  0  0  0  0  0
   40.4475   39.5573   29.2276 O   0  0  0  0  0  0  0  0  0  0  0  0
   39.7314   35.5488   26.7279 C   0  0  0  0  0  0  0  0  0  0  0  0
   39.5204   39.7220   27.2743 N   0  0  0  0  0  0  0  0  0  0  0  0
   39.1537   40.9387   27.2904 C   0  0  0  0  0  0  0  0  0  0  0  0
   38.4693   41.4889   26.2715 C   0  0  0  0  0  0  0  0  0  0  0  0
   39.0392   41.6837   28.5121 O   0  0  0  0  0  0  0  0  0  0  0  0
  1  2  1  0
  2  3  1  0
  2  4  1  0
  1  5  1  0
  5  6  1  0
  7  6  1  1
  7  8  1  0
  8  9  1  0
  4 10  1  0
  6 10  1  0
  9 11  1  0
  9 12  1  6
  7 13  1  0
 12 14  2  0
 11 15  1  0
 13 15  1  0
 12 16  1  0
 16 17  1  0
 17 18  1  0
 17 19  2  0
M  END
$$$$
54
     RDKit          3D

 20 22  0  0  0  0  0  0  0  0999 V2000
   37.7914   37.3496   33.1079 C   0  0  1  0  0  0  0  0  0  0  0  0
   37.2353   36.2486   33.3076 N   0  0  0  0  0  0  0  0  0  0  0  0
   36.9627   35.3506   32.3764 C   0  0  2  0  0  0  0  0  0  0  0  0
   36.1904   34.1790   32.5907 N   0  0  0  0  0  0  0  0  0  0  0  0
   38.2351   38.1273   34.2077 O   0  0  0  0  0  0  0  0  0  0  0  0
   39.6413   38.1625   34.4503 C   0  0  0  0  0  0  0  0  0  0  0  0
   35.8934   33.4461   31.5088 C   0  0  0  0  0  0  0  0  0  0  0  0
   36.4461   33.7634   30.2791 N   0  0  0  0  0  0  0  0  0  0  0  0
   38.5233   37.0432   31.8382 C   0  0  0  0  0  0  0  0  0  0  0  0
   37.6936   35.5948   31.2304 C   0  0  2  0  0  0  0  0  0  0  0  0
   37.5406   34.9897   30.1268 C   0  0  1  0  0  0  0  0  0  0  0  0
   38.2079   35.1647   28.9054 C   0  0  2  0  0  0  0  0  0  0  0  0
   38.1311   34.2627   27.8926 C   0  0  2  0  0  0  0  0  0  0  0  0
   39.1137   36.1067   28.7848 C   0  0  0  0  0  0  0  0  0  0  0  0
   38.7305   34.4666   26.8052 C   0  0  1  0  0  0  0  0  0  0  0  0
   37.3687   32.9673   27.6497 O   0  0  0  0  0  0  0  0  0  0  0  0
   38.5355   33.5590   25.5585 O   0  0  0  0  0  0  0  0  0  0  0  0
   39.5055   35.6758   26.5340 C   0  0  0  0  0  0  0  0  0  0  0  0
   37.6690   34.0614   24.6605 C   0  0  0  0  0  0  0  0  0  0  0  0
   39.7406   36.4119   27.6466 C   0  0  0  0  0  0  0  0  0  0  0  0
  1  2  1  0
  3  2  1  1
  3  4  1  0
  1  5  1  1
  5  6  1  0
  4  7  1  0
  7  8  1  0
  1  9  1  0
  3 10  1  0
 10  9  1  6
 11  8  1  1
 10 11  1  0
 11 12  1  0
 12 13  1  0
 12 14  1  1
 13 15  1  0
 13 16  1  6
 15 17  1  6
 15 18  1  0
 17 19  1  0
 14 20  1  0
 18 20  1  0
M  END
$$$$
55
     RDKit          3D

 20 22  0  0  0  0  0  0  0  0999 V2000
   37.7914   37.3496   33.1079 C   0  0  2  0  0  0  0  0  0  0  0  0
   38.3958   37.3825   31.9755 N   0  0  0  0  0  0  0  0  0  0  0  0
   38.2580   38.2193   34.1317 N   0  0  0  0  0  0  0  0  0  0  0  0
   38.0878   36.6075   31.2316 C   0  0  0  0  0  0  0  0  0  0  0  0
   37.2708   35.4441   31.6053 N   0  0  0  0  0  0  0  0  0  0  0  0
   38.6809   36.3902   29.7975 N   0  0  0  0  0  0  0  0  0  0  0  0
   37.1377   36.0588   33.0796 C   0  0  2  0  0  0  0  0  0  0  0  0
   39.5308   37.3060   29.3040 C   0  0  0  0  0  0  0  0  0  0  0  0
   38.3181   35.2699   28.9693 C   0  0  0  0  0  0  0  0  0  0  0  0
   36.3342   35.1503   33.8210 N   0  0  0  0  0  0  0  0  0  0  0  0
   38.8600   35.4788   27.6346 C   0  0  1  0  0  0  0  0  0  0  0  0
   37.6430   33.9688   28.8956 C   0  0  0  0  0  0  0  0  0  0  0  0
   39.6862   36.7514   27.8763 N   0  0  0  0  0  0  0  0  0  0  0  0
   40.6696   37.3527   26.9446 C   0  0  0  0  0  0  0  0  0  0  0  0
   38.8671   34.8795   26.3866 C   0  0  0  0  0  0  0  0  0  0  0  0
   38.1734   33.6330   26.5329 C   0  0  0  0  0  0  0  0  0  0  0  0
   40.4509   38.5648   26.6902 C   0  0  0  0  0  0  0  0  0  0  0  0
   39.3018   39.2532   27.0600 N   0  0  0  0  0  0  0  0  0  0  0  0
   39.0750   40.6453   26.5137 C   0  0  0  0  0  0  0  0  0  0  0  0
   37.5753   33.2363   27.7375 C   0  0  0  0  0  0  0  0  0  0  0  0
  1  2  1  0
  1  3  1  1
  2  4  1  0
  4  5  1  0
  4  6  1  0
  1  7  1  0
  5  7  1  0
  6  8  1  0
  6  9  1  0
  7 10  1  6
  9 11  1  0
  9 12  1  0
  8 13  1  0
 11 13  1  0
 13 14  1  0
 11 15  1  1
 15 16  1  0
 14 17  1  0
 17 18  1  0
 18 19  1  0
 12 20  1  0
 16 20  1  0
M  END
$$$$
56
     RDKit          3D

 20 23  0  0  0  0  0  0  0  0999 V2000
   36.0314   33.4808   30.8148 C   0  0  0  0  0  0  0  0  0  0  0  0
   36.1755   34.0005   32.0158 C   0  0  0  0  0  0  0  0  0  0  0  0
   35.4085   33.5611   33.1833 O   0  0  0  0  0  0  0  0  0  0  0  0
   36.8321   35.4021   32.0591 C   0  0  0  0  0  0  0  0  0  0  0  0
   37.0823   34.0198   29.8453 C   0  0  0  0  0  0  0  0  0  0  0  0
   37.8685   35.1017   29.9905 C   0  0  0  0  0  0  0  0  0  0  0  0
   38.7832   35.5778   29.0264 C   0  0  2  0  0  0  0  0  0  0  0  0
   39.4252   36.7475   29.2103 N   0  0  0  0  0  0  0  0  0  0  0  0
   40.0917   37.4326   28.1352 C   0  0  1  0  0  0  0  0  0  0  0  0
   37.7374   35.8378   31.1960 C   0  0  0  0  0  0  0  0  0  0  0  0
   39.8460   36.9364   26.8465 C   0  0  2  0  0  0  0  0  0  0  0  0
   39.9750   38.9355   28.2308 C   0  0  1  0  0  0  0  0  0  0  0  0
   39.3538   39.5506   27.2522 N   0  0  0  0  0  0  0  0  0  0  0  0
   39.3308   39.0021   25.9951 N   0  0  0  0  0  0  0  0  0  0  0  0
   39.6089   37.7306   25.7710 C   0  0  0  0  0  0  0  0  0  0  0  0
   39.3823   40.9782   27.3813 C   0  0  0  0  0  0  0  0  0  0  0  0
   39.7094   41.3674   28.6644 C   0  0  0  0  0  0  0  0  0  0  0  0
   40.0515   39.9894   29.2164 C   0  0  0  0  0  0  0  0  0  0  0  0
   39.0160   34.8840   27.7902 N   0  0  0  0  0  0  0  0  0  0  0  0
   39.5235   35.5360   26.7113 C   0  0  0  0  0  0  0  0  0  0  0  0
  1  2  1  0
  2  3  1  0
  2  4  1  0
  1  5  1  0
  5  6  1  0
  7  6  1  6
  7  8  1  0
  9  8  1  1
  4 10  1  0
  6 10  1  0
  9 11  1  0
  9 12  1  0
 12 13  1  0
 13 14  1  0
 11 15  1  1
 14 15  1  0
 13 16  1  0
 16 17  1  0
 12 18  1  1
 17 18  1  0
  7 19  1  0
 11 20  1  0
 19 20  1  0
M  END
$$$$
57
     RDKit          3D

 20 23  0  0  0  0  0  0  0  0999 V2000
   37.7914   37.3496   33.1079 C   0  0  2  0  0  0  0  0  0  0  0  0
   38.3958   37.3825   31.9755 N   0  0  0  0  0  0  0  0  0  0  0  0
   38.2580   38.2193   34.1317 N   0  0  0  0  0  0  0  0  0  0  0  0
   38.0878   36.6075   31.2316 C   0  0  1  0  0  0  0  0  0  0  0  0
   37.1533   36.1784   33.5308 N   0  0  0  0  0  0  0  0  0  0  0  0
   36.6252   36.0605   34.8434 C   0  0  0  0  0  0  0  0  0  0  0  0
   37.0782   36.9842   35.8220 N   0  0  0  0  0  0  0  0  0  0  0  0
   37.8775   37.9401   35.4344 C   0  0  0  0  0  0  0  0  0  0  0  0
   38.6483   36.5061   29.8235 N   0  0  0  0  0  0  0  0  0  0  0  0
   37.0678   35.5180   32.4271 C   0  0  0  0  0  0  0  0  0  0  0  0
   37.2946   35.4967   31.3508 C   0  0  2  0  0  0  0  0  0  0  0  0
   37.1277   34.5289   30.2257 C   0  0  0  0  0  0  0  0  0  0  0  0
   38.0300   34.8551   29.2531 C   0  0  1  0  0  0  0  0  0  0  0  0
   38.1469   34.7445   27.9238 C   0  0  1  0  0  0  0  0  0  0  0  0
   38.9782   35.4912   27.1060 C   0  0  2  0  0  0  0  0  0  0  0  0
   39.5137   36.7831   27.6853 C   0  0  0  0  0  0  0  0  0  0  0  0
   39.3310   37.0025   28.9955 C   0  0  0  0  0  0  0  0  0  0  0  0
   38.8327   35.4304   25.7086 O   0  0  0  0  0  0  0  0  0  0  0  0
   35.9332   34.5065   33.0379 O   0  0  0  0  0  0  0  0  0  0  0  0
   38.0567   33.4036   27.2650 O   0  0  0  0  0  0  0  0  0  0  0  0
  1  2  1  6
  1  3  1  0
  4  2  1  1
  1  5  1  0
  5  6  1  0
  6  7  1  0
  3  8  1  0
  7  8  1  0
  4  9  1  0
  5 10  1  0
  4 11  1  0
 10 11  1  0
 11 12  1  1
  9 13  1  0
 13 12  1  6
 13 14  1  0
 14 15  1  0
 15 16  1  0
  9 17  1  0
 16 17  1  0
 15 18  1  6
 10 19  2  0
 14 20  1  1
M  END
$$$$
58
     RDKit          3D

 20 22  0  0  0  0  0  0  0  0999 V2000
   36.3367   35.0125   33.4818 C   0  0  0  0  0  0  0  0  0  0  0  0
   37.1885   36.0167   33.0675 N   0  0  0  0  0  0  0  0  0  0  0  0
   37.6289   36.9486   33.9010 C   0  0  2  0  0  0  0  0  0  0  0  0
   35.9570   34.9284   34.6498 N   0  0  0  0  0  0  0  0  0  0  0  0
   38.5893   37.8334   33.4140 N   0  0  0  0  0  0  0  0  0  0  0  0
   37.7639   36.3048   31.7668 C   0  0  2  0  0  0  0  0  0  0  0  0
   37.4799   37.2057   35.3741 C   0  0  0  0  0  0  0  0  0  0  0  0
   37.6761   35.4165   30.7032 C   0  0  2  0  0  0  0  0  0  0  0  0
   38.2900   35.5349   29.4963 C   0  0  2  0  0  0  0  0  0  0  0  0
   38.7325   37.3244   32.0192 N   0  0  0  0  0  0  0  0  0  0  0  0
   35.9597   34.1028   32.5244 N   0  0  0  0  0  0  0  0  0  0  0  0
   38.1090   34.5455   28.5103 C   0  0  0  0  0  0  0  0  0  0  0  0
   39.2397   36.4664   29.2099 C   0  0  0  0  0  0  0  0  0  0  0  0
   38.7104   34.5824   27.4920 N   0  0  0  0  0  0  0  0  0  0  0  0
   36.6939   34.3213   30.9411 C   0  0  0  0  0  0  0  0  0  0  0  0
   39.5166   35.6143   27.0614 C   0  0  0  0  0  0  0  0  0  0  0  0
   38.3000   33.6463   26.3488 C   0  0  0  0  0  0  0  0  0  0  0  0
   39.7518   36.5886   28.0572 C   0  0  0  0  0  0  0  0  0  0  0  0
   36.9586   33.6755   26.1297 O   0  0  0  0  0  0  0  0  0  0  0  0
   39.2057   33.2408   25.3357 C   0  0  0  0  0  0  0  0  0  0  0  0
  1  2  1  0
  2  3  1  0
  1  4  2  0
  3  5  1  0
  2  6  1  0
  3  7  1  1
  6  8  1  0
  8  9  1  0
  5 10  1  0
  6 10  1  1
  1 11  1  0
  9 12  1  1
  9 13  1  0
 12 14  1  0
  8 15  1  6
 11 15  1  0
 14 16  1  0
 14 17  1  0
 13 18  1  0
 16 18  1  0
 17 19  2  0
 17 20  1  0
M  END
$$$$
59
     RDKit          3D

 20 22  0  0  0  0  0  0  0  0999 V2000
   37.7914   37.3496   33.1079 N   0  0  0  0  0  0  0  0  0  0  0  0
   37.3197   36.2436   33.1024 C   0  0  2  0  0  0  0  0  0  0  0  0
   38.6881   37.6061   32.0925 C   0  0  2  0  0  0  0  0  0  0  0  0
   39.4228   38.7085   31.9217 N   0  0  0  0  0  0  0  0  0  0  0  0
   38.6762   36.7481   30.8880 C   0  0  0  0  0  0  0  0  0  0  0  0
   39.5943   39.7047   32.9058 C   0  0  0  0  0  0  0  0  0  0  0  0
   39.4268   37.0164   29.8340 N   0  0  0  0  0  0  0  0  0  0  0  0
   37.1648   35.2932   32.0171 N   0  0  0  0  0  0  0  0  0  0  0  0
   39.7349   39.0207   30.6157 C   0  0  1  0  0  0  0  0  0  0  0  0
   36.3913   34.1195   32.0663 C   0  0  0  0  0  0  0  0  0  0  0  0
   40.3443   40.3938   30.4523 O   0  0  0  0  0  0  0  0  0  0  0  0
   36.2796   33.5493   30.8330 C   0  0  0  0  0  0  0  0  0  0  0  0
   39.5570   41.2473   29.6629 C   0  0  0  0  0  0  0  0  0  0  0  0
   37.7719   35.5836   30.9266 C   0  0  2  0  0  0  0  0  0  0  0  0
   38.3791   40.6963   29.1525 C   0  0  0  0  0  0  0  0  0  0  0  0
   36.5179   36.0061   34.2995 N   0  0  0  0  0  0  0  0  0  0  0  0
   37.3604   34.2450   30.0517 N   0  0  0  0  0  0  0  0  0  0  0  0
   39.7309   38.1285   29.6245 C   0  0  0  0  0  0  0  0  0  0  0  0
   37.2795   41.6003   29.3882 O   0  0  0  0  0  0  0  0  0  0  0  0
   38.0422   34.0340   28.8324 C   0  0  0  0  0  0  0  0  0  0  0  0
  1  2  1  0
  3  1  1  6
  3  4  1  0
  3  5  1  0
  4  6  1  0
  5  7  1  0
  2  8  1  0
  4  9  1  0
  8 10  1  0
  9 11  1  1
 10 12  1  0
 11 13  1  0
  5 14  1  0
  8 14  1  0
 13 15  1  0
  2 16  1  6
 12 17  1  0
 14 17  1  1
  7 18  1  0
  9 18  1  0
 15 19  1  0
 17 20  1  0
M  END
$$$$
6
     RDKit          3D

 14 15  0  0  0  0  0  0  0  0999 V2000
   36.3367   35.0125   33.4818 C   0  0  0  0  0  0  0  0  0  0  0  0
   35.9160   34.1370   32.6178 N   0  0  0  0  0  0  0  0  0  0  0  0
   37.0552   36.0595   32.9097 C   0  0  2  0  0  0  0  0  0  0  0  0
   36.3211   34.0249   31.3333 C   0  0  0  0  0  0  0  0  0  0  0  0
   37.4700   35.7893   31.6440 C   0  0  0  0  0  0  0  0  0  0  0  0
   37.6650   37.1152   33.9155 C   0  0  0  0  0  0  0  0  0  0  0  0
   37.1177   34.8772   30.8456 C   0  0  0  0  0  0  0  0  0  0  0  0
   37.4365   36.9465   35.2040 O   0  0  0  0  0  0  0  0  0  0  0  0
   38.4472   38.0121   33.4384 N   0  0  0  0  0  0  0  0  0  0  0  0
   37.5795   34.8043   29.4222 C   0  0  2  0  0  0  0  0  0  0  0  0
   37.2343   33.7034   28.7390 N   0  0  0  0  0  0  0  0  0  0  0  0
   36.0334   33.0758   30.3724 N   0  0  0  0  0  0  0  0  0  0  0  0
   38.6171   35.7442   28.9613 N   0  0  0  0  0  0  0  0  0  0  0  0
   36.5261   32.9461   29.2428 C   0  0  0  0  0  0  0  0  0  0  0  0
  1  2  1  0
  1  3  1  0
  2  4  1  0
  3  5  1  0
  3  6  1  1
  4  7  1  0
  5  7  1  0
  6  8  2  0
  6  9  1  0
  7 10  1  0
 10 11  1  0
  4 12  1  0
 10 13  1  1
 11 14  1  0
 12 14  1  0
M  END
$$$$
60
     RDKit          3D

 20 23  0  0  0  0  0  0  0  0999 V2000
   36.3367   35.0125   33.4818 C   0  0  0  0  0  0  0  0  0  0  0  0
   35.9160   34.1370   32.6178 C   0  0  0  0  0  0  0  0  0  0  0  0
   36.0291   35.1162   34.7937 N   0  0  0  0  0  0  0  0  0  0  0  0
   37.2810   36.0062   32.9111 C   0  0  1  0  0  0  0  0  0  0  0  0
   37.5303   35.7300   31.5945 C   0  0  1  0  0  0  0  0  0  0  0  0
   38.5110   36.5163   30.8414 N   0  0  0  0  0  0  0  0  0  0  0  0
   34.9696   33.1711   33.1522 O   0  0  0  0  0  0  0  0  0  0  0  0
   37.8264   37.3458   33.3104 C   0  0  0  0  0  0  0  0  0  0  0  0
   37.5633   37.5043   34.7083 O   0  0  0  0  0  0  0  0  0  0  0  0
   37.0512   34.7249   30.7492 C   0  0  0  0  0  0  0  0  0  0  0  0
   38.5795   35.9029   29.5712 C   0  0  0  0  0  0  0  0  0  0  0  0
   36.1524   33.9500   31.3551 N   0  0  0  0  0  0  0  0  0  0  0  0
   38.4873   38.1071   32.7357 N   0  0  0  0  0  0  0  0  0  0  0  0
   34.0332   32.8675   32.1441 C   0  0  0  0  0  0  0  0  0  0  0  0
   37.6722   34.8523   29.5208 N   0  0  0  0  0  0  0  0  0  0  0  0
   39.4023   36.2428   28.4866 N   0  0  0  0  0  0  0  0  0  0  0  0
   37.5900   33.8031   28.3834 C   0  0  0  0  0  0  0  0  0  0  0  0
   38.9265   37.7603   31.3807 C   0  0  0  0  0  0  0  0  0  0  0  0
   38.1430   34.4985   27.1565 C   0  0  0  0  0  0  0  0  0  0  0  0
   39.1484   35.5978   27.4174 C   0  0  0  0  0  0  0  0  0  0  0  0
  1  2  1  0
  1  3  1  0
  4  1  1  6
  4  5  1  0
  5  6  1  0
  2  7  1  0
  4  8  1  0
  8  9  2  0
  5 10  1  1
  6 11  1  0
  2 12  1  0
 10 12  1  0
  8 13  1  0
  7 14  1  0
 10 15  1  0
 11 15  1  0
 11 16  1  0
 15 17  1  0
  6 18  1  0
 13 18  1  0
 17 19  1  0
 16 20  1  0
 19 20  1  0
M  END
$$$$
61
     RDKit          3D

 20 22  0  0  0  0  0  0  0  0999 V2000
   35.6127   33.7004   32.8725 C   0  0  0  0  0  0  0  0  0  0  0  0
   35.6052   33.5454   31.5115 C   0  0  0  0  0  0  0  0  0  0  0  0
   36.5683   34.2370   30.7412 C   0  0  2  0  0  0  0  0  0  0  0  0
   36.4252   34.7178   33.4776 C   0  0  0  0  0  0  0  0  0  0  0  0
   37.1809   35.5176   32.4409 C   0  0  0  0  0  0  0  0  0  0  0  0
   37.2920   35.2204   31.1908 C   0  0  0  0  0  0  0  0  0  0  0  0
   36.7133   33.8459   29.2223 C   0  0  0  0  0  0  0  0  0  0  0  0
   37.7499   34.5924   28.6051 N   0  0  0  0  0  0  0  0  0  0  0  0
   38.2314   35.9284   30.3256 C   0  0  0  0  0  0  0  0  0  0  0  0
   38.3519   35.5189   29.1721 C   0  0  0  0  0  0  0  0  0  0  0  0
   39.3148   36.2159   28.2021 C   0  0  0  0  0  0  0  0  0  0  0  0
   40.0090   37.3010   28.6350 N   0  0  0  0  0  0  0  0  0  0  0  0
   39.5476   35.8388   26.8861 N   0  0  0  0  0  0  0  0  0  0  0  0
   40.8778   37.9673   27.7522 C   0  0  1  0  0  0  0  0  0  0  0  0
   40.5640   36.8416   26.4355 C   0  0  0  0  0  0  0  0  0  0  0  0
   41.6062   38.9925   27.7344 C   0  0  0  0  0  0  0  0  0  0  0  0
   40.9401   40.2334   27.3189 N   0  0  0  0  0  0  0  0  0  0  0  0
   39.4799   40.3026   27.2463 C   0  0  0  0  0  0  0  0  0  0  0  0
   38.8180   39.6736   27.4957 O   0  0  0  0  0  0  0  0  0  0  0  0
   39.0243   41.8618   27.0822 C   0  0  0  0  0  0  0  0  0  0  0  0
  1  2  1  0
  3  2  1  6
  1  4  1  0
  4  5  1  0
  3  6  1  0
  5  6  1  0
  3  7  1  0
  7  8  1  0
  6  9  1  0
  8 10  1  0
  9 10  1  0
 10 11  1  0
 11 12  1  0
 11 13  2  0
 12 14  1  0
 13 15  1  0
 14 15  1  0
 14 16  1  6
 16 17  1  0
 17 18  1  0
 18 19  2  0
 18 20  1  0
M  END
$$$$
62
     RDKit          3D

 20 23  0  0  0  0  0  0  0  0999 V2000
   36.0314   33.4808   30.8148 N   0  0  0  0  0  0  0  0  0  0  0  0
   35.9256   33.8213   31.9907 C   0  0  1  0  0  0  0  0  0  0  0  0
   37.0090   33.7441   30.0039 C   0  0  1  0  0  0  0  0  0  0  0  0
   36.6150   34.9838   32.4971 N   0  0  0  0  0  0  0  0  0  0  0  0
   37.2145   33.3779   28.7692 N   0  0  0  0  0  0  0  0  0  0  0  0
   37.8471   34.9181   30.4848 C   0  0  2  0  0  0  0  0  0  0  0  0
   34.8555   33.3278   32.7945 N   0  0  0  0  0  0  0  0  0  0  0  0
   37.5542   35.5121   31.5932 C   0  0  0  0  0  0  0  0  0  0  0  0
   38.1727   33.7073   27.9143 C   0  0  0  0  0  0  0  0  0  0  0  0
   39.0085   34.7991   28.3269 C   0  0  0  0  0  0  0  0  0  0  0  0
   38.7620   35.4686   29.5300 C   0  0  2  0  0  0  0  0  0  0  0  0
   38.1999   36.7416   31.8953 N   0  0  0  0  0  0  0  0  0  0  0  0
   39.5321   36.6177   29.8776 N   0  0  0  0  0  0  0  0  0  0  0  0
   39.1691   37.2322   30.9832 C   0  0  2  0  0  0  0  0  0  0  0  0
   39.9261   38.3893   31.3581 N   0  0  0  0  0  0  0  0  0  0  0  0
   40.8876   38.3673   32.0879 C   0  0  0  0  0  0  0  0  0  0  0  0
   39.5073   39.6716   30.8170 C   0  0  0  0  0  0  0  0  0  0  0  0
   41.5711   39.5751   32.4220 C   0  0  0  0  0  0  0  0  0  0  0  0
   40.9784   40.6816   31.8673 C   0  0  0  0  0  0  0  0  0  0  0  0
   40.0148   40.7614   31.0842 C   0  0  0  0  0  0  0  0  0  0  0  0
  1  2  1  0
  3  1  1  6
  2  4  1  0
  3  5  1  0
  3  6  1  0
  2  7  1  6
  4  8  1  0
  6  8  1  6
  5  9  1  0
  9 10  1  0
  6 11  1  0
 11 10  1  1
  8 12  1  0
 11 13  1  0
 12 14  1  0
 13 14  1  0
 14 15  1  1
 15 16  1  0
 15 17  1  0
 16 18  1  0
 18 19  1  0
 17 20  1  0
 19 20  1  0
M  END
$$$$
63
     RDKit          3D

 20 23  0  0  0  0  0  0  0  0999 V2000
   36.3367   35.0125   33.4818 C   0  0  0  0  0  0  0  0  0  0  0  0
   37.1885   36.0167   33.0675 C   0  0  1  0  0  0  0  0  0  0  0  0
   37.6540   36.9720   33.9528 N   0  0  0  0  0  0  0  0  0  0  0  0
   37.7714   36.0913   31.7397 C   0  0  2  0  0  0  0  0  0  0  0  0
   38.5596   37.6926   33.4861 C   0  0  2  0  0  0  0  0  0  0  0  0
   38.9939   38.7086   34.4488 N   0  0  0  0  0  0  0  0  0  0  0  0
   35.9156   34.0063   32.5186 C   0  0  0  0  0  0  0  0  0  0  0  0
   37.3423   35.0116   30.8195 C   0  0  2  0  0  0  0  0  0  0  0  0
   38.6017   36.9170   31.6025 C   0  0  2  0  0  0  0  0  0  0  0  0
   37.8077   35.0064   29.5201 N   0  0  0  0  0  0  0  0  0  0  0  0
   38.9762   37.8549   32.4268 N   0  0  0  0  0  0  0  0  0  0  0  0
   36.4234   34.0802   31.2269 N   0  0  0  0  0  0  0  0  0  0  0  0
   38.8937   36.9178   30.1036 N   0  0  0  0  0  0  0  0  0  0  0  0
   38.6307   36.0193   29.4041 C   0  0  2  0  0  0  0  0  0  0  0  0
   39.3255   36.0685   27.8525 C   0  0  0  0  0  0  0  0  0  0  0  0
   39.0209   34.9845   27.0782 C   0  0  0  0  0  0  0  0  0  0  0  0
   40.0703   37.1277   27.5534 C   0  0  0  0  0  0  0  0  0  0  0  0
   39.5650   35.1174   25.7349 C   0  0  0  0  0  0  0  0  0  0  0  0
   40.3638   36.1746   25.4282 C   0  0  0  0  0  0  0  0  0  0  0  0
   40.5477   37.1872   26.3206 C   0  0  0  0  0  0  0  0  0  0  0  0
  2  1  1  1
  2  3  1  0
  4  2  1  1
  3  5  1  0
  5  6  1  6
  1  7  1  0
  4  8  1  0
  4  9  1  0
  8 10  1  6
  5 11  1  0
  9 11  1  6
  7 12  1  0
  8 12  1  0
  9 13  1  0
 10 14  1  0
 13 14  1  0
 14 15  1  6
 15 16  1  0
 15 17  1  0
 16 18  1  0
 18 19  1  0
 17 20  1  0
 19 20  1  0
M  END
$$$$
64
     RDKit          3D

 20 23  0  0  0  0  0  0  0  0999 V2000
   37.7914   37.3496   33.1079 C   0  0  1  0  0  0  0  0  0  0  0  0
   37.2353   36.2486   33.3076 N   0  0  0  0  0  0  0  0  0  0  0  0
   36.9627   35.3506   32.3764 C   0  0  2  0  0  0  0  0  0  0  0  0
   36.1904   34.1790   32.5907 N   0  0  0  0  0  0  0  0  0  0  0  0
   38.2351   38.1273   34.2077 O   0  0  0  0  0  0  0  0  0  0  0  0
   39.6413   38.1625   34.4503 C   0  0  0  0  0  0  0  0  0  0  0  0
   35.8934   33.4461   31.5088 C   0  0  0  0  0  0  0  0  0  0  0  0
   36.4461   33.7634   30.2791 N   0  0  0  0  0  0  0  0  0  0  0  0
   38.5233   37.0432   31.8382 C   0  0  1  0  0  0  0  0  0  0  0  0
   37.6936   35.5948   31.2304 C   0  0  2  0  0  0  0  0  0  0  0  0
   37.5406   34.9897   30.1268 C   0  0  1  0  0  0  0  0  0  0  0  0
   38.2079   35.1647   28.9054 C   0  0  2  0  0  0  0  0  0  0  0  0
   38.1311   34.2627   27.8926 C   0  0  0  0  0  0  0  0  0  0  0  0
   39.1137   36.1067   28.7848 C   0  0  2  0  0  0  0  0  0  0  0  0
   38.7305   34.4666   26.8052 C   0  0  0  0  0  0  0  0  0  0  0  0
   39.3532   37.1610   29.8324 N   0  0  0  0  0  0  0  0  0  0  0  0
   39.0428   37.6437   30.8767 C   0  0  0  0  0  0  0  0  0  0  0  0
   39.7514   36.4387   27.5124 C   0  0  0  0  0  0  0  0  0  0  0  0
   39.5746   35.5435   26.5125 C   0  0  0  0  0  0  0  0  0  0  0  0
   39.5814   38.8785   31.2607 O   0  0  0  0  0  0  0  0  0  0  0  0
  1  2  1  0
  3  2  1  1
  3  4  1  0
  1  5  1  1
  5  6  1  0
  4  7  1  0
  7  8  1  0
  1  9  1  0
 10  3  1  6
  9 10  1  0
 11  8  1  1
 10 11  1  0
 11 12  1  0
 12 13  1  1
 12 14  1  0
 13 15  1  0
 14 16  1  0
  9 17  1  6
 16 17  1  0
 14 18  1  6
 15 19  1  0
 18 19  1  0
 17 20  2  0
M  END
$$$$
65
     RDKit          3D

 20 23  0  0  0  0  0  0  0  0999 V2000
   36.0314   33.4808   30.8148 C   0  0  0  0  0  0  0  0  0  0  0  0
   36.1755   34.0005   32.0158 C   0  0  0  0  0  0  0  0  0  0  0  0
   35.4085   33.5611   33.1833 O   0  0  0  0  0  0  0  0  0  0  0  0
   36.8321   35.4021   32.0591 C   0  0  0  0  0  0  0  0  0  0  0  0
   37.0823   34.0198   29.8453 C   0  0  0  0  0  0  0  0  0  0  0  0
   37.8685   35.1017   29.9905 C   0  0  0  0  0  0  0  0  0  0  0  0
   38.7832   35.5778   29.0264 C   0  0  2  0  0  0  0  0  0  0  0  0
   39.4252   36.7475   29.2103 N   0  0  0  0  0  0  0  0  0  0  0  0
   40.0917   37.4326   28.1352 C   0  0  1  0  0  0  0  0  0  0  0  0
   37.7374   35.8378   31.1960 C   0  0  0  0  0  0  0  0  0  0  0  0
   39.8460   36.9364   26.8465 C   0  0  2  0  0  0  0  0  0  0  0  0
   39.9750   38.9355   28.2308 C   0  0  1  0  0  0  0  0  0  0  0  0
   39.3538   39.5506   27.2522 N   0  0  0  0  0  0  0  0  0  0  0  0
   39.3308   39.0021   25.9951 N   0  0  0  0  0  0  0  0  0  0  0  0
   39.6089   37.7306   25.7710 C   0  0  0  0  0  0  0  0  0  0  0  0
   39.3823   40.9782   27.3813 C   0  0  0  0  0  0  0  0  0  0  0  0
   39.7094   41.3674   28.6644 C   0  0  0  0  0  0  0  0  0  0  0  0
   40.0515   39.9894   29.2164 C   0  0  0  0  0  0  0  0  0  0  0  0
   39.0160   34.8840   27.7902 C   0  0  0  0  0  0  0  0  0  0  0  0
   39.5302   35.5554   26.6650 C   0  0  0  0  0  0  0  0  0  0  0  0
  1  2  1  0
  2  3  1  0
  2  4  1  0
  1  5  1  0
  5  6  1  0
  7  6  1  6
  7  8  1  0
  9  8  1  1
  4 10  1  0
  6 10  1  0
  9 11  1  0
  9 12  1  0
 12 13  1  0
 13 14  1  0
 11 15  1  1
 14 15  1  0
 13 16  1  0
 16 17  1  0
 12 18  1  1
 17 18  1  0
  7 19  1  0
 11 20  1  0
 19 20  1  0
M  END
$$$$
66
     RDKit          3D

 20 23  0  0  0  0  0  0  0  0999 V2000
   35.3652   33.1354   32.5524 C   0  0  0  0  0  0  0  0  0  0  0  0
   36.0281   34.1965   33.0811 C   0  0  0  0  0  0  0  0  0  0  0  0
   35.9762   34.6376   34.3700 N   0  0  0  0  0  0  0  0  0  0  0  0
   36.9252   34.9121   32.1421 C   0  0  2  0  0  0  0  0  0  0  0  0
   37.6997   36.0353   32.4806 N   0  0  0  0  0  0  0  0  0  0  0  0
   36.6649   35.8131   34.6233 C   0  0  0  0  0  0  0  0  0  0  0  0
   35.4346   32.8942   31.1401 N   0  0  0  0  0  0  0  0  0  0  0  0
   37.4597   36.4674   33.7949 C   0  0  0  0  0  0  0  0  0  0  0  0
   38.3513   36.7052   31.5515 C   0  0  0  0  0  0  0  0  0  0  0  0
   39.1327   37.7651   31.6307 N   0  0  0  0  0  0  0  0  0  0  0  0
   38.0605   35.9841   30.3126 C   0  0  2  0  0  0  0  0  0  0  0  0
   37.1030   34.8951   30.7338 N   0  0  0  0  0  0  0  0  0  0  0  0
   38.8101   36.3194   29.2954 C   0  0  0  0  0  0  0  0  0  0  0  0
   36.2714   33.7171   30.3028 C   0  0  0  0  0  0  0  0  0  0  0  0
   39.7226   38.0973   30.7579 C   0  0  0  0  0  0  0  0  0  0  0  0
   39.6435   37.4401   29.3891 C   0  0  0  0  0  0  0  0  0  0  0  0
   40.5012   38.0250   28.0213 C   0  0  0  0  0  0  0  0  0  0  0  0
   39.5715   38.6002   27.0936 C   0  0  0  0  0  0  0  0  0  0  0  0
   38.7006   39.3668   27.4841 O   0  0  0  0  0  0  0  0  0  0  0  0
   40.0847   38.7643   25.8750 O   0  0  0  0  0  0  0  0  0  0  0  0
  1  2  1  0
  2  3  1  0
  4  2  1  6
  4  5  1  0
  3  6  1  0
  1  7  1  0
  5  8  1  0
  6  8  1  0
  5  9  1  0
  9 10  1  0
  9 11  1  0
  4 12  1  0
 11 12  1  0
 11 13  1  1
  7 14  1  0
 12 14  1  0
 10 15  1  0
 13 16  1  0
 15 16  1  0
 16 17  1  0
 17 18  1  0
 18 19  2  0
 18 20  1  0
M  END
$$$$
67
     RDKit          3D

 20 22  0  0  0  0  0  0  0  0999 V2000
   36.3367   35.0125   33.4818 C   0  0  0  0  0  0  0  0  0  0  0  0
   35.9160   34.1370   32.6178 N   0  0  0  0  0  0  0  0  0  0  0  0
   37.0552   36.0595   32.9097 C   0  0  0  0  0  0  0  0  0  0  0  0
   36.3211   34.0249   31.3333 C   0  0  0  0  0  0  0  0  0  0  0  0
   37.4700   35.7893   31.6440 C   0  0  0  0  0  0  0  0  0  0  0  0
   35.8239   32.9311   30.5123 N   0  0  0  0  0  0  0  0  0  0  0  0
   37.1023   34.8588   30.9473 C   0  0  0  0  0  0  0  0  0  0  0  0
   38.5228   36.9095   31.1384 C   0  0  0  0  0  0  0  0  0  0  0  0
   37.8096   35.0600   29.5667 C   0  0  1  0  0  0  0  0  0  0  0  0
   38.9782   37.8860   31.8828 N   0  0  0  0  0  0  0  0  0  0  0  0
   39.0344   39.0821   31.6520 C   0  0  0  0  0  0  0  0  0  0  0  0
   38.8395   39.6708   30.4093 C   0  0  0  0  0  0  0  0  0  0  0  0
   38.8330   36.6581   29.7706 S   0  0  0  0  0  0  0  0  0  0  0  0
   39.2023   39.8857   32.7710 N   0  0  0  0  0  0  0  0  0  0  0  0
   39.4959   39.2986   29.2479 N   0  0  0  0  0  0  0  0  0  0  0  0
   38.1856   40.8705   30.2651 N   0  0  0  0  0  0  0  0  0  0  0  0
   37.9151   34.2563   28.4925 C   0  0  0  0  0  0  0  0  0  0  0  0
   38.0768   41.4531   29.0718 C   0  0  0  0  0  0  0  0  0  0  0  0
   38.6342   40.9709   27.9399 C   0  0  0  0  0  0  0  0  0  0  0  0
   39.4019   39.8684   28.1129 C   0  0  0  0  0  0  0  0  0  0  0  0
  1  2  1  0
  1  3  1  0
  2  4  1  0
  3  5  1  0
  4  6  1  0
  4  7  1  0
  5  7  1  0
  5  8  1  0
  7  9  1  0
  8 10  1  0
 10 11  1  0
 11 12  1  0
  8 13  1  0
  9 13  1  0
 11 14  2  0
 12 15  1  0
 12 16  1  0
  9 17  1  1
 16 18  1  0
 18 19  1  0
 15 20  1  0
 19 20  1  0
M  END
$$$$
68
     RDKit          3D

 20 22  0  0  0  0  0  0  0  0999 V2000
   35.6127   33.7004   32.8725 C   0  0  0  0  0  0  0  0  0  0  0  0
   35.6052   33.5454   31.5115 C   0  0  0  0  0  0  0  0  0  0  0  0
   36.7902   34.1886   30.9759 C   0  0  2  0  0  0  0  0  0  0  0  0
   36.3314   34.9669   33.1845 N   0  0  0  0  0  0  0  0  0  0  0  0
   36.4882   35.6811   34.3249 C   0  0  0  0  0  0  0  0  0  0  0  0
   36.9931   36.6626   34.4553 N   0  0  0  0  0  0  0  0  0  0  0  0
   37.1082   35.1650   31.9911 C   0  0  2  0  0  0  0  0  0  0  0  0
   37.3162   34.3780   29.6430 C   0  0  0  0  0  0  0  0  0  0  0  0
   38.0502   36.3362   31.9060 C   0  0  0  0  0  0  0  0  0  0  0  0
   38.2480   35.3463   29.3673 C   0  0  0  0  0  0  0  0  0  0  0  0
   35.7255   35.0548   35.3295 O   0  0  0  0  0  0  0  0  0  0  0  0
   38.5501   36.3562   30.6403 C   0  0  0  0  0  0  0  0  0  0  0  0
   38.9930   35.5134   28.0198 C   0  0  2  0  0  0  0  0  0  0  0  0
   39.6092   36.7357   27.7568 C   0  0  1  0  0  0  0  0  0  0  0  0
   38.0547   35.0893   26.9025 O   0  0  0  0  0  0  0  0  0  0  0  0
   40.3129   36.8580   26.4917 C   0  0  0  0  0  0  0  0  0  0  0  0
   40.8613   38.1081   26.1547 C   0  0  0  0  0  0  0  0  0  0  0  0
   40.2330   39.1791   26.8974 C   0  0  0  0  0  0  0  0  0  0  0  0
   38.9295   37.9721   28.1385 C   0  0  0  0  0  0  0  0  0  0  0  0
   39.3326   38.9997   27.8450 N   0  0  0  0  0  0  0  0  0  0  0  0
  1  2  1  0
  3  2  1  6
  1  4  1  0
  4  5  1  0
  5  6  1  0
  3  7  1  0
  4  7  1  0
  3  8  1  0
  7  9  1  6
  8 10  1  0
  5 11  2  0
  9 12  1  0
 10 12  1  0
 10 13  1  0
 13 14  1  0
 13 15  1  6
 14 16  1  6
 16 17  1  0
 17 18  1  0
 14 19  1  0
 18 20  1  0
 19 20  1  0
M  END
$$$$
69
     RDKit          3D

 20 23  0  0  0  0  0  0  0  0999 V2000
   37.7914   37.3496   33.1079 C   0  0  0  0  0  0  0  0  0  0  0  0
   37.2353   36.2486   33.3076 N   0  0  0  0  0  0  0  0  0  0  0  0
   38.5078   37.3702   31.9748 N   0  0  0  0  0  0  0  0  0  0  0  0
   38.0358   36.2015   31.2851 C   0  0  1  0  0  0  0  0  0  0  0  0
   38.3714   35.8014   30.0236 C   0  0  2  0  0  0  0  0  0  0  0  0
   39.2701   36.5581   29.1708 N   0  0  0  0  0  0  0  0  0  0  0  0
   37.2186   35.4890   32.2125 C   0  0  2  0  0  0  0  0  0  0  0  0
   37.6636   34.6961   29.4988 N   0  0  0  0  0  0  0  0  0  0  0  0
   39.1958   35.8741   27.9160 C   0  0  1  0  0  0  0  0  0  0  0  0
   39.9152   36.1133   26.7532 C   0  0  2  0  0  0  0  0  0  0  0  0
   40.6415   37.2357   26.7548 O   0  0  0  0  0  0  0  0  0  0  0  0
   38.0182   34.3700   28.2636 C   0  0  0  0  0  0  0  0  0  0  0  0
   36.1956   34.5169   32.0891 N   0  0  0  0  0  0  0  0  0  0  0  0
   37.3679   32.9957   27.9206 O   0  0  0  0  0  0  0  0  0  0  0  0
   38.6273   34.7906   27.5631 N   0  0  0  0  0  0  0  0  0  0  0  0
   38.9216   34.4986   26.1536 C   0  0  1  0  0  0  0  0  0  0  0  0
   38.1875   32.1974   27.4549 C   0  0  0  0  0  0  0  0  0  0  0  0
   39.7256   35.4379   25.6889 N   0  0  0  0  0  0  0  0  0  0  0  0
   38.4492   32.4380   25.9823 C   0  0  0  0  0  0  0  0  0  0  0  0
   39.2071   33.2778   25.6357 C   0  0  0  0  0  0  0  0  0  0  0  0
  1  2  1  0
  1  3  1  0
  4  3  1  1
  4  5  1  0
  5  6  1  6
  2  7  1  0
  4  7  1  0
  5  8  1  0
  9  6  1  1
  9 10  1  0
 10 11  1  6
  8 12  1  0
  7 13  1  6
 12 14  1  0
  9 15  1  0
 12 15  1  0
 15 16  1  0
 14 17  1  0
 10 18  1  0
 16 18  1  0
 17 19  1  0
 16 20  1  1
 19 20  1  0
M  END
$$$$
7
     RDKit          3D

 14 16  0  0  0  0  0  0  0  0999 V2000
   36.0314   33.4808   30.8148 C   0  0  0  0  0  0  0  0  0  0  0  0
   36.1755   34.0005   32.0158 C   0  0  0  0  0  0  0  0  0  0  0  0
   36.8910   35.1675   32.2236 C   0  0  0  0  0  0  0  0  0  0  0  0
   37.0706   33.9932   29.9054 C   0  0  2  0  0  0  0  0  0  0  0  0
   37.8325   35.0803   30.0836 C   0  0  1  0  0  0  0  0  0  0  0  0
   37.7731   35.6575   31.3408 C   0  0  0  0  0  0  0  0  0  0  0  0
   37.1944   33.4031   28.5542 O   0  0  0  0  0  0  0  0  0  0  0  0
   38.5786   35.3351   28.9221 C   0  0  2  0  0  0  0  0  0  0  0  0
   39.4367   36.4574   28.7210 N   0  0  0  0  0  0  0  0  0  0  0  0
   38.0941   34.5197   27.8851 C   0  0  1  0  0  0  0  0  0  0  0  0
   38.5985   34.5136   26.5917 C   0  0  0  0  0  0  0  0  0  0  0  0
   39.5008   35.5772   26.3197 C   0  0  0  0  0  0  0  0  0  0  0  0
   39.9301   36.4571   27.3959 C   0  0  0  0  0  0  0  0  0  0  0  0
   38.2610   33.6302   25.6301 O   0  0  0  0  0  0  0  0  0  0  0  0
  1  2  1  0
  2  3  1  0
  4  1  1  6
  4  5  1  0
  3  6  1  0
  5  6  1  1
  4  7  1  0
  5  8  1  0
  8  9  1  6
 10  7  1  1
  8 10  1  0
 10 11  1  0
 11 12  1  0
  9 13  1  0
 12 13  1  0
 11 14  1  0
M  END
$$$$
70
     RDKit          3D

 20 24  0  0  0  0  0  0  0  0999 V2000
   37.1198   36.5681   33.8826 C   0  0  1  0  0  0  0  0  0  0  0  0
   37.9732   37.1404   33.1071 N   0  0  0  0  0  0  0  0  0  0  0  0
   36.4608   35.3960   33.5329 N   0  0  0  0  0  0  0  0  0  0  0  0
   37.1197   36.6884   35.3630 C   0  0  0  0  0  0  0  0  0  0  0  0
   37.9800   37.6337   35.8520 C   0  0  0  0  0  0  0  0  0  0  0  0
   38.8658   38.2849   35.0435 C   0  0  0  0  0  0  0  0  0  0  0  0
   38.8731   37.9701   33.6961 C   0  0  2  0  0  0  0  0  0  0  0  0
   37.9489   36.6571   31.8327 C   0  0  1  0  0  0  0  0  0  0  0  0
   36.4695   35.0225   32.1976 C   0  0  1  0  0  0  0  0  0  0  0  0
   38.9203   37.3399   30.9819 N   0  0  0  0  0  0  0  0  0  0  0  0
   37.3965   35.5801   31.3751 C   0  0  1  0  0  0  0  0  0  0  0  0
   35.8050   33.9316   31.7940 N   0  0  0  0  0  0  0  0  0  0  0  0
   37.4904   35.0644   30.0544 C   0  0  1  0  0  0  0  0  0  0  0  0
   38.5215   35.6320   29.2134 N   0  0  0  0  0  0  0  0  0  0  0  0
   39.5687   38.5248   31.2909 C   0  0  2  0  0  0  0  0  0  0  0  0
   39.4104   38.8579   32.6432 N   0  0  0  0  0  0  0  0  0  0  0  0
   36.9653   33.8147   29.6714 C   0  0  0  0  0  0  0  0  0  0  0  0
   40.0204   39.4283   30.5501 N   0  0  0  0  0  0  0  0  0  0  0  0
   36.0359   33.3212   30.5672 C   0  0  0  0  0  0  0  0  0  0  0  0
   39.3398   36.9721   29.6584 C   0  0  0  0  0  0  0  0  0  0  0  0
  1  2  1  0
  1  3  1  0
  1  4  1  1
  4  5  1  0
  5  6  1  0
  2  7  1  0
  7  6  1  1
  2  8  1  0
  9  3  1  1
  8 10  1  1
  8 11  1  0
 11  9  1  6
  9 12  1  0
 11 13  1  0
 13 14  1  0
 10 15  1  0
  7 16  1  0
 15 16  1  0
 13 17  1  1
 15 18  1  6
 12 19  1  0
 17 19  1  0
 10 20  1  0
 14 20  1  0
M  END
$$$$
71
     RDKit          3D

 20 24  0  0  0  0  0  0  0  0999 V2000
   35.6127   33.7004   32.8725 C   0  0  0  0  0  0  0  0  0  0  0  0
   35.6052   33.5454   31.5115 C   0  0  0  0  0  0  0  0  0  0  0  0
   36.7902   34.1886   30.9759 C   0  0  2  0  0  0  0  0  0  0  0  0
   36.3314   34.9669   33.1845 N   0  0  0  0  0  0  0  0  0  0  0  0
   36.4882   35.6811   34.3249 C   0  0  0  0  0  0  0  0  0  0  0  0
   36.9931   36.6626   34.4553 N   0  0  0  0  0  0  0  0  0  0  0  0
   37.0649   35.2400   31.9875 C   0  0  0  0  0  0  0  0  0  0  0  0
   37.9052   36.4601   31.9288 C   0  0  1  0  0  0  0  0  0  0  0  0
   37.9148   37.1226   33.2376 C   0  0  1  0  0  0  0  0  0  0  0  0
   38.7028   36.7102   30.9355 C   0  0  2  0  0  0  0  0  0  0  0  0
   39.4842   37.8815   30.9294 N   0  0  0  0  0  0  0  0  0  0  0  0
   37.2404   34.2019   29.6469 C   0  0  0  0  0  0  0  0  0  0  0  0
   39.3909   38.6442   32.0539 C   0  0  0  0  0  0  0  0  0  0  0  0
   38.7095   38.3256   33.3094 N   0  0  0  0  0  0  0  0  0  0  0  0
   38.0026   35.1387   29.0643 N   0  0  0  0  0  0  0  0  0  0  0  0
   38.8632   36.1521   29.5861 C   0  0  1  0  0  0  0  0  0  0  0  0
   38.4691   34.7526   27.6846 C   0  0  0  0  0  0  0  0  0  0  0  0
   39.7172   36.8346   28.6399 N   0  0  0  0  0  0  0  0  0  0  0  0
   36.7854   33.1011   29.0224 O   0  0  0  0  0  0  0  0  0  0  0  0
   39.4551   35.9728   27.3856 C   0  0  0  0  0  0  0  0  0  0  0  0
  1  2  1  0
  3  2  1  6
  1  4  1  0
  4  5  1  0
  5  6  1  0
  3  7  1  0
  4  7  1  0
  8  7  1  1
  9  6  1  6
  8  9  1  0
  8 10  1  0
 10 11  1  6
  3 12  1  0
 11 13  1  0
  9 14  1  0
 13 14  1  0
 12 15  1  0
 10 16  1  0
 15 16  1  0
 15 17  1  0
 16 18  1  6
 12 19  2  0
 17 20  1  0
 18 20  1  0
M  END
$$$$
72
     RDKit          3D

 20 24  0  0  0  0  0  0  0  0999 V2000
   35.8876   33.7870   33.0652 C   0  0  0  0  0  0  0  0  0  0  0  0
   36.6876   34.9880   33.1429 C   0  0  2  0  0  0  0  0  0  0  0  0
   36.8241   35.6961   34.3184 N   0  0  0  0  0  0  0  0  0  0  0  0
   37.3366   36.8631   34.4193 C   0  0  0  0  0  0  0  0  0  0  0  0
   35.6258   33.4303   31.7706 C   0  0  0  0  0  0  0  0  0  0  0  0
   36.2633   33.9386   30.6491 C   0  0  2  0  0  0  0  0  0  0  0  0
   37.9060   37.4299   33.3330 N   0  0  0  0  0  0  0  0  0  0  0  0
   36.3107   33.3357   29.4394 O   0  0  0  0  0  0  0  0  0  0  0  0
   37.4352   33.7267   28.6845 C   0  0  1  0  0  0  0  0  0  0  0  0
   37.1536   35.0614   30.8808 C   0  0  0  0  0  0  0  0  0  0  0  0
   37.9043   35.5334   29.7386 N   0  0  0  0  0  0  0  0  0  0  0  0
   37.5227   32.8870   27.3952 C   0  0  0  0  0  0  0  0  0  0  0  0
   38.0944   34.8497   28.7274 C   0  0  2  0  0  0  0  0  0  0  0  0
   37.2383   35.6657   32.1157 C   0  0  2  0  0  0  0  0  0  0  0  0
   37.9199   36.7909   32.2082 C   0  0  1  0  0  0  0  0  0  0  0  0
   38.8240   35.0875   27.5482 C   0  0  0  0  0  0  0  0  0  0  0  0
   39.0362   34.3349   26.5150 C   0  0  0  0  0  0  0  0  0  0  0  0
   38.1773   33.2548   26.4120 C   0  0  0  0  0  0  0  0  0  0  0  0
   38.5779   37.3350   31.1033 C   0  0  0  0  0  0  0  0  0  0  0  0
   38.6873   36.6864   30.0494 C   0  0  0  0  0  0  0  0  0  0  0  0
  2  1  1  6
  2  3  1  0
  3  4  1  0
  1  5  1  0
  6  5  1  1
  4  7  1  0
  6  8  1  0
  8  9  1  0
  6 10  1  0
 10 11  1  0
  9 12  1  6
  9 13  1  0
 11 13  1  0
  2 14  1  0
 14 10  1  1
  7 15  1  0
 14 15  1  0
 13 16  1  6
 16 17  1  0
 12 18  1  0
 17 18  1  0
 15 19  1  6
 11 20  1  0
 19 20  1  0
M  END
$$$$
73
     RDKit          3D

 21 24  0  0  0  0  0  0  0  0999 V2000
   36.0314   33.4808   30.8148 C   0  0  0  0  0  0  0  0  0  0  0  0
   36.1755   34.0005   32.0158 C   0  0  0  0  0  0  0  0  0  0  0  0
   35.4085   33.5611   33.1833 O   0  0  0  0  0  0  0  0  0  0  0  0
   36.8321   35.4021   32.0591 C   0  0  0  0  0  0  0  0  0  0  0  0
   37.0823   34.0198   29.8453 C   0  0  0  0  0  0  0  0  0  0  0  0
   37.8685   35.1017   29.9905 C   0  0  0  0  0  0  0  0  0  0  0  0
   38.7832   35.5778   29.0264 C   0  0  2  0  0  0  0  0  0  0  0  0
   39.4252   36.7475   29.2103 N   0  0  0  0  0  0  0  0  0  0  0  0
   40.0917   37.4326   28.1352 C   0  0  1  0  0  0  0  0  0  0  0  0
   37.7374   35.8378   31.1960 C   0  0  0  0  0  0  0  0  0  0  0  0
   39.8460   36.9364   26.8465 C   0  0  2  0  0  0  0  0  0  0  0  0
   39.9750   38.9355   28.2308 C   0  0  1  0  0  0  0  0  0  0  0  0
   39.3538   39.5506   27.2522 N   0  0  0  0  0  0  0  0  0  0  0  0
   39.3308   39.0021   25.9951 N   0  0  0  0  0  0  0  0  0  0  0  0
   39.6089   37.7306   25.7710 C   0  0  0  0  0  0  0  0  0  0  0  0
   39.3823   40.9782   27.3813 C   0  0  0  0  0  0  0  0  0  0  0  0
   39.7094   41.3674   28.6644 C   0  0  0  0  0  0  0  0  0  0  0  0
   39.9943   40.0238   29.2848 C   0  0  0  0  0  0  0  0  0  0  0  0
   39.0163   34.8756   27.7907 N   0  0  0  0  0  0  0  0  0  0  0  0
   39.4527   35.5901   26.6683 C   0  0  0  0  0  0  0  0  0  0  0  0
   39.5634   34.9446   25.5027 N   0  0  0  0  0  0  0  0  0  0  0  0
  1  2  1  0
  2  3  1  0
  2  4  1  0
  1  5  1  0
  5  6  1  0
  7  6  1  6
  7  8  1  0
  9  8  1  1
  4 10  1  0
  6 10  1  0
  9 11  1  0
  9 12  1  0
 12 13  1  0
 13 14  1  0
 11 15  1  1
 14 15  1  0
 13 16  1  0
 16 17  1  0
 12 18  1  1
 17 18  1  0
  7 19  1  0
 11 20  1  0
 19 20  1  0
 20 21  2  0
M  END
$$$$
74
     RDKit          3D

 21 24  0  0  0  0  0  0  0  0999 V2000
   36.3367   35.0125   33.4818 C   0  0  0  0  0  0  0  0  0  0  0  0
   37.1885   36.0167   33.0675 C   0  0  1  0  0  0  0  0  0  0  0  0
   37.6540   36.9720   33.9528 N   0  0  0  0  0  0  0  0  0  0  0  0
   37.7714   36.0913   31.7397 C   0  0  2  0  0  0  0  0  0  0  0  0
   38.5596   37.6926   33.4861 C   0  0  2  0  0  0  0  0  0  0  0  0
   38.9939   38.7086   34.4488 N   0  0  0  0  0  0  0  0  0  0  0  0
   35.9156   34.0063   32.5186 C   0  0  0  0  0  0  0  0  0  0  0  0
   37.3423   35.0116   30.8195 C   0  0  2  0  0  0  0  0  0  0  0  0
   38.6017   36.9170   31.6025 C   0  0  2  0  0  0  0  0  0  0  0  0
   37.8077   35.0064   29.5201 N   0  0  0  0  0  0  0  0  0  0  0  0
   38.9762   37.8549   32.4268 N   0  0  0  0  0  0  0  0  0  0  0  0
   36.4234   34.0802   31.2269 N   0  0  0  0  0  0  0  0  0  0  0  0
   38.8937   36.9178   30.1036 N   0  0  0  0  0  0  0  0  0  0  0  0
   38.6307   36.0193   29.4041 C   0  0  2  0  0  0  0  0  0  0  0  0
   39.3255   36.0685   27.8525 C   0  0  0  0  0  0  0  0  0  0  0  0
   39.0209   34.9845   27.0782 C   0  0  0  0  0  0  0  0  0  0  0  0
   40.0703   37.1277   27.5534 C   0  0  2  0  0  0  0  0  0  0  0  0
   39.5650   35.1174   25.7349 C   0  0  0  0  0  0  0  0  0  0  0  0
   40.3638   36.1746   25.4282 C   0  0  0  0  0  0  0  0  0  0  0  0
   40.3885   38.1877   28.5024 O   0  0  0  0  0  0  0  0  0  0  0  0
   40.4903   37.2336   26.2282 C   0  0  0  0  0  0  0  0  0  0  0  0
  2  1  1  1
  2  3  1  0
  4  2  1  1
  3  5  1  0
  5  6  1  6
  1  7  1  0
  4  8  1  0
  4  9  1  0
  8 10  1  6
  5 11  1  0
  9 11  1  6
  7 12  1  0
  8 12  1  0
  9 13  1  0
 10 14  1  0
 13 14  1  0
 14 15  1  6
 15 16  1  0
 15 17  1  0
 16 18  1  0
 18 19  1  0
 17 20  1  6
 17 21  1  0
 19 21  1  0
M  END
$$$$
75
     RDKit          3D

 21 23  0  0  0  0  0  0  0  0999 V2000
   37.7914   37.3496   33.1079 N   0  0  0  0  0  0  0  0  0  0  0  0
   37.3197   36.2436   33.1024 C   0  0  2  0  0  0  0  0  0  0  0  0
   38.6881   37.6061   32.0925 C   0  0  2  0  0  0  0  0  0  0  0  0
   39.4228   38.7085   31.9217 N   0  0  0  0  0  0  0  0  0  0  0  0
   38.6762   36.7481   30.8880 C   0  0  0  0  0  0  0  0  0  0  0  0
   39.5943   39.7047   32.9058 C   0  0  0  0  0  0  0  0  0  0  0  0
   39.4268   37.0164   29.8340 N   0  0  0  0  0  0  0  0  0  0  0  0
   37.1648   35.2932   32.0171 N   0  0  0  0  0  0  0  0  0  0  0  0
   39.7349   39.0207   30.6157 C   0  0  1  0  0  0  0  0  0  0  0  0
   36.3913   34.1195   32.0663 C   0  0  0  0  0  0  0  0  0  0  0  0
   40.3443   40.3938   30.4523 O   0  0  0  0  0  0  0  0  0  0  0  0
   36.2796   33.5493   30.8330 C   0  0  0  0  0  0  0  0  0  0  0  0
   39.5570   41.2473   29.6629 C   0  0  0  0  0  0  0  0  0  0  0  0
   37.7719   35.5836   30.9266 C   0  0  2  0  0  0  0  0  0  0  0  0
   38.3791   40.6963   29.1525 C   0  0  0  0  0  0  0  0  0  0  0  0
   36.5179   36.0061   34.2995 N   0  0  0  0  0  0  0  0  0  0  0  0
   37.3604   34.2450   30.0517 N   0  0  0  0  0  0  0  0  0  0  0  0
   39.7309   38.1285   29.6245 C   0  0  0  0  0  0  0  0  0  0  0  0
   37.2795   41.6003   29.3882 O   0  0  0  0  0  0  0  0  0  0  0  0
   38.2279   40.3678   27.8553 O   0  0  0  0  0  0  0  0  0  0  0  0
   38.0487   34.0434   28.8450 C   0  0  0  0  0  0  0  0  0  0  0  0
  1  2  1  0
  3  1  1  6
  3  4  1  0
  3  5  1  0
  4  6  1  0
  5  7  1  0
  2  8  1  0
  4  9  1  0
  8 10  1  0
  9 11  1  1
 10 12  1  0
 11 13  1  0
  5 14  1  0
  8 14  1  0
 13 15  1  0
  2 16  1  6
 12 17  1  0
 14 17  1  1
  7 18  1  0
  9 18  1  0
 15 19  1  0
 15 20  2  0
 17 21  1  0
M  END
$$$$
76
     RDKit          3D

 21 25  0  0  0  0  0  0  0  0999 V2000
   37.7914   37.3496   33.1079 C   0  0  2  0  0  0  0  0  0  0  0  0
   38.3958   37.3825   31.9755 N   0  0  0  0  0  0  0  0  0  0  0  0
   38.2580   38.2193   34.1317 N   0  0  0  0  0  0  0  0  0  0  0  0
   38.0878   36.6075   31.2316 C   0  0  1  0  0  0  0  0  0  0  0  0
   37.1533   36.1784   33.5308 N   0  0  0  0  0  0  0  0  0  0  0  0
   36.6252   36.0605   34.8434 C   0  0  2  0  0  0  0  0  0  0  0  0
   37.0782   36.9842   35.8220 N   0  0  0  0  0  0  0  0  0  0  0  0
   37.8775   37.9401   35.4344 C   0  0  0  0  0  0  0  0  0  0  0  0
   38.6483   36.5061   29.8235 N   0  0  0  0  0  0  0  0  0  0  0  0
   37.0678   35.5180   32.4271 C   0  0  0  0  0  0  0  0  0  0  0  0
   37.2946   35.4967   31.3508 C   0  0  2  0  0  0  0  0  0  0  0  0
   37.1277   34.5289   30.2257 C   0  0  0  0  0  0  0  0  0  0  0  0
   38.0300   34.8551   29.2531 C   0  0  1  0  0  0  0  0  0  0  0  0
   38.1469   34.7445   27.9238 C   0  0  1  0  0  0  0  0  0  0  0  0
   38.9782   35.4912   27.1060 C   0  0  2  0  0  0  0  0  0  0  0  0
   39.5137   36.7831   27.6853 C   0  0  0  0  0  0  0  0  0  0  0  0
   39.3310   37.0025   28.9955 C   0  0  0  0  0  0  0  0  0  0  0  0
   38.8327   35.4304   25.7086 O   0  0  0  0  0  0  0  0  0  0  0  0
   35.9332   34.5065   33.0379 N   0  0  0  0  0  0  0  0  0  0  0  0
   35.8732   34.9506   34.6628 N   0  0  0  0  0  0  0  0  0  0  0  0
   38.1498   33.3800   27.3574 O   0  0  0  0  0  0  0  0  0  0  0  0
  1  2  1  6
  1  3  1  0
  4  2  1  1
  1  5  1  0
  5  6  1  0
  6  7  1  1
  3  8  1  0
  7  8  1  0
  4  9  1  0
  5 10  1  0
  4 11  1  0
 10 11  1  0
 11 12  1  1
  9 13  1  0
 13 12  1  6
 13 14  1  0
 14 15  1  0
 15 16  1  0
  9 17  1  0
 16 17  1  0
 15 18  1  6
 10 19  2  0
  6 20  1  0
 19 20  1  0
 14 21  1  1
M  END
$$$$
77
     RDKit          3D

 21 24  0  0  0  0  0  0  0  0999 V2000
   35.6127   33.7004   32.8725 C   0  0  0  0  0  0  0  0  0  0  0  0
   35.6052   33.5454   31.5115 C   0  0  0  0  0  0  0  0  0  0  0  0
   36.7902   34.1886   30.9759 C   0  0  2  0  0  0  0  0  0  0  0  0
   36.3314   34.9669   33.1845 N   0  0  0  0  0  0  0  0  0  0  0  0
   36.4882   35.6811   34.3249 C   0  0  0  0  0  0  0  0  0  0  0  0
   36.9931   36.6626   34.4553 N   0  0  0  0  0  0  0  0  0  0  0  0
   37.1082   35.1650   31.9911 C   0  0  2  0  0  0  0  0  0  0  0  0
   37.3162   34.3780   29.6430 C   0  0  0  0  0  0  0  0  0  0  0  0
   38.0502   36.3362   31.9060 C   0  0  0  0  0  0  0  0  0  0  0  0
   38.2480   35.3463   29.3673 C   0  0  0  0  0  0  0  0  0  0  0  0
   35.7255   35.0548   35.3295 O   0  0  0  0  0  0  0  0  0  0  0  0
   38.5501   36.3562   30.6403 C   0  0  1  0  0  0  0  0  0  0  0  0
   38.9930   35.5134   28.0198 C   0  0  2  0  0  0  0  0  0  0  0  0
   39.6092   36.7357   27.7568 C   0  0  1  0  0  0  0  0  0  0  0  0
   38.0547   35.0893   26.9025 O   0  0  0  0  0  0  0  0  0  0  0  0
   40.3129   36.8580   26.4917 C   0  0  0  0  0  0  0  0  0  0  0  0
   40.8613   38.1081   26.1547 C   0  0  0  0  0  0  0  0  0  0  0  0
   40.2330   39.1791   26.8974 C   0  0  0  0  0  0  0  0  0  0  0  0
   39.4630   38.9277   28.0357 C   0  0  0  0  0  0  0  0  0  0  0  0
   39.2342   37.7321   28.4397 C   0  0  2  0  0  0  0  0  0  0  0  0
   39.3492   37.5079   29.9679 N   0  0  0  0  0  0  0  0  0  0  0  0
  1  2  1  0
  3  2  1  6
  1  4  1  0
  4  5  1  0
  5  6  1  0
  3  7  1  0
  4  7  1  0
  3  8  1  0
  7  9  1  6
  8 10  1  0
  5 11  2  0
 12  9  1  6
 10 12  1  0
 10 13  1  0
 13 14  1  0
 13 15  1  6
 14 16  1  6
 16 17  1  0
 17 18  1  0
 18 19  1  0
 14 20  1  0
 20 19  1  6
 12 21  1  0
 20 21  1  0
M  END
$$$$
78
     RDKit          3D

 21 24  0  0  0  0  0  0  0  0999 V2000
   35.3652   33.1354   32.5524 C   0  0  0  0  0  0  0  0  0  0  0  0
   36.0281   34.1965   33.0811 C   0  0  0  0  0  0  0  0  0  0  0  0
   35.9762   34.6376   34.3700 N   0  0  0  0  0  0  0  0  0  0  0  0
   36.9252   34.9121   32.1421 C   0  0  2  0  0  0  0  0  0  0  0  0
   37.6997   36.0353   32.4806 N   0  0  0  0  0  0  0  0  0  0  0  0
   36.6649   35.8131   34.6233 C   0  0  0  0  0  0  0  0  0  0  0  0
   35.4346   32.8942   31.1401 N   0  0  0  0  0  0  0  0  0  0  0  0
   37.4597   36.4674   33.7949 C   0  0  0  0  0  0  0  0  0  0  0  0
   38.3513   36.7052   31.5515 C   0  0  0  0  0  0  0  0  0  0  0  0
   39.1327   37.7651   31.6307 N   0  0  0  0  0  0  0  0  0  0  0  0
   38.0605   35.9841   30.3126 C   0  0  2  0  0  0  0  0  0  0  0  0
   37.1030   34.8951   30.7338 N   0  0  0  0  0  0  0  0  0  0  0  0
   38.8101   36.3194   29.2954 C   0  0  0  0  0  0  0  0  0  0  0  0
   36.2714   33.7171   30.3028 C   0  0  0  0  0  0  0  0  0  0  0  0
   39.7226   38.0973   30.7579 C   0  0  0  0  0  0  0  0  0  0  0  0
   39.6435   37.4401   29.3891 C   0  0  0  0  0  0  0  0  0  0  0  0
   40.5012   38.0250   28.0213 C   0  0  0  0  0  0  0  0  0  0  0  0
   39.5715   38.6002   27.0936 C   0  0  1  0  0  0  0  0  0  0  0  0
   38.7006   39.3668   27.4841 O   0  0  0  0  0  0  0  0  0  0  0  0
   40.2444   39.0775   25.9383 C   0  0  0  0  0  0  0  0  0  0  0  0
   41.1846   39.7777   26.1548 O   0  0  0  0  0  0  0  0  0  0  0  0
  1  2  1  0
  2  3  1  0
  4  2  1  6
  4  5  1  0
  3  6  1  0
  1  7  1  0
  5  8  1  0
  6  8  1  0
  5  9  1  0
  9 10  1  0
  9 11  1  0
  4 12  1  0
 11 12  1  0
 11 13  1  1
  7 14  1  0
 12 14  1  0
 10 15  1  0
 13 16  1  0
 15 16  1  0
 16 17  1  0
 17 18  1  0
 18 19  1  1
 18 20  1  0
 20 21  1  0
M  END
$$$$
79
     RDKit          3D

 21 25  0  0  0  0  0  0  0  0999 V2000
   36.3367   35.0125   33.4818 N   0  0  0  0  0  0  0  0  0  0  0  0
   36.2143   34.4258   32.3677 C   0  0  2  0  0  0  0  0  0  0  0  0
   35.4504   33.3534   32.0973 N   0  0  0  0  0  0  0  0  0  0  0  0
   37.0769   34.8972   31.2335 C   0  0  0  0  0  0  0  0  0  0  0  0
   37.0795   34.2716   30.0530 C   0  0  2  0  0  0  0  0  0  0  0  0
   37.7333   36.0412   31.6882 C   0  0  2  0  0  0  0  0  0  0  0  0
   36.4907   33.0863   29.8580 N   0  0  0  0  0  0  0  0  0  0  0  0
   37.5600   36.5416   32.9295 N   0  0  0  0  0  0  0  0  0  0  0  0
   36.9700   36.1207   33.7678 C   0  0  0  0  0  0  0  0  0  0  0  0
   36.5430   32.5022   28.6379 C   0  0  0  0  0  0  0  0  0  0  0  0
   37.6166   33.3794   27.9743 C   0  0  2  0  0  0  0  0  0  0  0  0
   37.8789   34.6087   28.9505 N   0  0  0  0  0  0  0  0  0  0  0  0
   38.8096   35.5793   28.8171 C   0  0  1  0  0  0  0  0  0  0  0  0
   35.5171   32.7175   30.8279 C   0  0  0  0  0  0  0  0  0  0  0  0
   38.5013   36.7255   30.6815 N   0  0  0  0  0  0  0  0  0  0  0  0
   39.5019   35.5287   27.5786 N   0  0  0  0  0  0  0  0  0  0  0  0
   39.0778   36.5189   29.5848 C   0  0  0  0  0  0  0  0  0  0  0  0
   39.4114   34.6926   26.4769 C   0  0  0  0  0  0  0  0  0  0  0  0
   40.7610   36.2847   27.1287 C   0  0  0  0  0  0  0  0  0  0  0  0
   39.6318   35.0348   25.3053 O   0  0  0  0  0  0  0  0  0  0  0  0
   38.1190   33.6760   26.6842 C   0  0  0  0  0  0  0  0  0  0  0  0
  2  1  1  1
  2  3  1  0
  2  4  1  0
  4  5  1  0
  4  6  1  0
  5  7  1  1
  6  8  1  6
  1  9  1  0
  8  9  1  0
  7 10  1  0
 11 10  1  6
  5 12  1  0
 11 12  1  0
 12 13  1  0
  3 14  1  0
  7 14  1  0
  6 15  1  0
 13 16  1  0
 13 17  1  6
 15 17  1  0
 16 18  1  0
 16 19  1  0
 18 20  2  0
 11 21  1  0
 18 21  1  0
M  END
$$$$
8
     RDKit          3D

 15 17  0  0  0  0  0  0  0  0999 V2000
   35.3652   33.1354   32.5524 O   0  0  0  0  0  0  0  0  0  0  0  0
   35.8374   33.7533   31.5252 C   0  0  0  0  0  0  0  0  0  0  0  0
   36.8008   34.8303   31.7959 C   0  0  2  0  0  0  0  0  0  0  0  0
   36.0582   33.2146   30.2789 N   0  0  0  0  0  0  0  0  0  0  0  0
   36.8198   33.6942   29.3138 C   0  0  1  0  0  0  0  0  0  0  0  0
   36.7799   35.4741   33.0854 N   0  0  0  0  0  0  0  0  0  0  0  0
   37.5258   36.6042   33.1194 C   0  0  1  0  0  0  0  0  0  0  0  0
   37.5958   35.5022   30.8906 C   0  0  1  0  0  0  0  0  0  0  0  0
   38.2454   36.5378   31.3309 N   0  0  0  0  0  0  0  0  0  0  0  0
   37.6528   34.8883   29.5986 N   0  0  0  0  0  0  0  0  0  0  0  0
   37.4836   37.1513   34.4810 N   0  0  0  0  0  0  0  0  0  0  0  0
   38.1857   37.0445   32.4742 C   0  0  0  0  0  0  0  0  0  0  0  0
   36.9862   33.1055   28.0744 N   0  0  0  0  0  0  0  0  0  0  0  0
   38.8282   38.1200   33.1452 N   0  0  0  0  0  0  0  0  0  0  0  0
   38.3972   38.1151   34.3772 C   0  0  0  0  0  0  0  0  0  0  0  0
  1  2  2  0
  2  3  1  0
  2  4  1  0
  4  5  1  0
  3  6  1  6
  7  6  1  1
  3  8  1  0
  8  9  1  1
  5 10  1  0
  8 10  1  0
  7 11  1  0
  7 12  1  0
  9 12  1  0
  5 13  1  1
 12 14  1  0
 11 15  1  0
 14 15  1  0
M  END
$$$$
80
     RDKit          3D

 21 25  0  0  0  0  0  0  0  0999 V2000
   36.3367   35.0125   33.4818 C   0  0  0  0  0  0  0  0  0  0  0  0
   37.1885   36.0167   33.0675 C   0  0  1  0  0  0  0  0  0  0  0  0
   37.6540   36.9720   33.9528 C   0  0  0  0  0  0  0  0  0  0  0  0
   38.6343   37.8741   33.5198 C   0  0  0  0  0  0  0  0  0  0  0  0
   39.0685   37.9257   32.2289 N   0  0  0  0  0  0  0  0  0  0  0  0
   35.9270   34.1744   32.5441 C   0  0  0  0  0  0  0  0  0  0  0  0
   36.6170   34.4525   31.1870 C   0  0  0  0  0  0  0  0  0  0  0  0
   40.0206   38.8223   31.7905 C   0  0  0  0  0  0  0  0  0  0  0  0
   37.4725   35.3598   30.9339 C   0  0  0  0  0  0  0  0  0  0  0  0
   38.0752   35.5109   29.6495 N   0  0  0  0  0  0  0  0  0  0  0  0
   40.4700   39.7507   32.5709 O   0  0  0  0  0  0  0  0  0  0  0  0
   38.7078   36.9780   31.1706 C   0  0  0  0  0  0  0  0  0  0  0  0
   37.7616   36.1165   31.9018 C   0  0  1  0  0  0  0  0  0  0  0  0
   40.6796   38.7190   30.5243 C   0  0  0  0  0  0  0  0  0  0  0  0
   40.1564   37.8574   29.5548 C   0  0  1  0  0  0  0  0  0  0  0  0
   38.0504   34.7831   28.5128 C   0  0  2  0  0  0  0  0  0  0  0  0
   39.0404   36.8811   29.8828 C   0  0  1  0  0  0  0  0  0  0  0  0
   37.4500   33.5851   28.5444 C   0  0  0  0  0  0  0  0  0  0  0  0
   38.8974   35.3344   27.5711 N   0  0  0  0  0  0  0  0  0  0  0  0
   40.5103   37.8107   28.1802 C   0  0  0  0  0  0  0  0  0  0  0  0
   39.5368   36.6802   27.5564 C   0  0  0  0  0  0  0  0  0  0  0  0
  2  1  1  1
  2  3  1  0
  3  4  1  0
  4  5  1  0
  1  6  1  0
  6  7  1  0
  5  8  1  0
  7  9  1  0
  9 10  1  0
  8 11  2  0
  5 12  1  0
  2 13  1  0
 13  9  1  6
 12 13  1  0
  8 14  1  0
 15 14  1  6
 10 16  1  0
 17 10  1  1
 12 17  1  0
 15 17  1  0
 16 18  1  1
 16 19  1  0
 15 20  1  0
 19 21  1  0
 20 21  1  0
M  END
$$$$
81
     RDKit          3D

 21 23  0  0  0  0  0  0  0  0999 V2000
   37.7914   37.3496   33.1079 C   0  0  1  0  0  0  0  0  0  0  0  0
   37.2353   36.2486   33.3076 N   0  0  0  0  0  0  0  0  0  0  0  0
   36.9627   35.3506   32.3764 C   0  0  2  0  0  0  0  0  0  0  0  0
   36.1904   34.1790   32.5907 N   0  0  0  0  0  0  0  0  0  0  0  0
   38.2351   38.1273   34.2077 O   0  0  0  0  0  0  0  0  0  0  0  0
   39.6413   38.1625   34.4503 C   0  0  0  0  0  0  0  0  0  0  0  0
   35.8934   33.4461   31.5088 C   0  0  0  0  0  0  0  0  0  0  0  0
   36.4461   33.7634   30.2791 N   0  0  0  0  0  0  0  0  0  0  0  0
   38.5233   37.0432   31.8382 C   0  0  0  0  0  0  0  0  0  0  0  0
   37.6936   35.5948   31.2304 C   0  0  2  0  0  0  0  0  0  0  0  0
   37.5406   34.9897   30.1268 C   0  0  1  0  0  0  0  0  0  0  0  0
   38.2079   35.1647   28.9054 C   0  0  2  0  0  0  0  0  0  0  0  0
   38.1311   34.2627   27.8926 C   0  0  2  0  0  0  0  0  0  0  0  0
   39.1137   36.1067   28.7848 C   0  0  0  0  0  0  0  0  0  0  0  0
   38.7305   34.4666   26.8052 C   0  0  1  0  0  0  0  0  0  0  0  0
   37.3687   32.9673   27.6497 O   0  0  0  0  0  0  0  0  0  0  0  0
   38.5355   33.5590   25.5585 O   0  0  0  0  0  0  0  0  0  0  0  0
   39.5055   35.6758   26.5340 C   0  0  2  0  0  0  0  0  0  0  0  0
   37.6690   34.0614   24.6605 C   0  0  0  0  0  0  0  0  0  0  0  0
   40.1392   35.9530   25.2683 O   0  0  0  0  0  0  0  0  0  0  0  0
   39.6550   36.4825   27.6440 C   0  0  0  0  0  0  0  0  0  0  0  0
  1  2  1  0
  3  2  1  1
  3  4  1  0
  1  5  1  1
  5  6  1  0
  4  7  1  0
  7  8  1  0
  1  9  1  0
  3 10  1  0
 10  9  1  6
 11  8  1  1
 10 11  1  0
 11 12  1  0
 12 13  1  0
 12 14  1  1
 13 15  1  0
 13 16  1  6
 15 17  1  6
 15 18  1  0
 17 19  1  0
 18 20  1  1
 14 21  1  0
 18 21  1  0
M  END
$$$$
82
     RDKit          3D

 21 25  0  0  0  0  0  0  0  0999 V2000
   37.7914   37.3496   33.1079 C   0  0  2  0  0  0  0  0  0  0  0  0
   38.3958   37.3825   31.9755 N   0  0  0  0  0  0  0  0  0  0  0  0
   38.2580   38.2193   34.1317 N   0  0  0  0  0  0  0  0  0  0  0  0
   38.0878   36.6075   31.2316 C   0  0  1  0  0  0  0  0  0  0  0  0
   37.1533   36.1784   33.5308 N   0  0  0  0  0  0  0  0  0  0  0  0
   36.6252   36.0605   34.8434 C   0  0  2  0  0  0  0  0  0  0  0  0
   37.0782   36.9842   35.8220 N   0  0  0  0  0  0  0  0  0  0  0  0
   37.8775   37.9401   35.4344 C   0  0  0  0  0  0  0  0  0  0  0  0
   38.6483   36.5061   29.8235 N   0  0  0  0  0  0  0  0  0  0  0  0
   37.0678   35.5180   32.4271 C   0  0  0  0  0  0  0  0  0  0  0  0
   37.2946   35.4967   31.3508 C   0  0  2  0  0  0  0  0  0  0  0  0
   37.1277   34.5289   30.2257 C   0  0  0  0  0  0  0  0  0  0  0  0
   38.0300   34.8551   29.2531 C   0  0  1  0  0  0  0  0  0  0  0  0
   38.1469   34.7445   27.9238 C   0  0  1  0  0  0  0  0  0  0  0  0
   38.9782   35.4912   27.1060 C   0  0  2  0  0  0  0  0  0  0  0  0
   39.5137   36.7831   27.6853 C   0  0  0  0  0  0  0  0  0  0  0  0
   39.3310   37.0025   28.9955 C   0  0  0  0  0  0  0  0  0  0  0  0
   38.8327   35.4304   25.7086 O   0  0  0  0  0  0  0  0  0  0  0  0
   35.9332   34.5065   33.0379 N   0  0  0  0  0  0  0  0  0  0  0  0
   35.8732   34.9506   34.6628 C   0  0  0  0  0  0  0  0  0  0  0  0
   38.1426   33.3833   27.3615 O   0  0  0  0  0  0  0  0  0  0  0  0
  1  2  1  6
  1  3  1  0
  4  2  1  1
  1  5  1  0
  5  6  1  0
  6  7  1  0
  3  8  1  0
  7  8  1  0
  4  9  1  0
  5 10  1  0
  4 11  1  0
 10 11  1  0
 11 12  1  1
  9 13  1  0
 13 12  1  6
 13 14  1  0
 14 15  1  0
 15 16  1  0
  9 17  1  0
 16 17  1  0
 15 18  1  6
 10 19  2  0
  6 20  1  1
 19 20  1  0
 14 21  1  1
M  END
$$$$
83
     RDKit          3D

 21 23  0  0  0  0  0  0  0  0999 V2000
   36.3367   35.0125   33.4818 C   0  0  0  0  0  0  0  0  0  0  0  0
   35.9160   34.1370   32.6178 N   0  0  0  0  0  0  0  0  0  0  0  0
   37.0552   36.0595   32.9097 C   0  0  0  0  0  0  0  0  0  0  0  0
   36.3211   34.0249   31.3333 C   0  0  0  0  0  0  0  0  0  0  0  0
   37.4700   35.7893   31.6440 C   0  0  0  0  0  0  0  0  0  0  0  0
   35.8239   32.9311   30.5123 N   0  0  0  0  0  0  0  0  0  0  0  0
   37.1023   34.8588   30.9473 C   0  0  0  0  0  0  0  0  0  0  0  0
   38.5228   36.9095   31.1384 C   0  0  0  0  0  0  0  0  0  0  0  0
   37.8096   35.0600   29.5667 C   0  0  1  0  0  0  0  0  0  0  0  0
   38.9782   37.8860   31.8828 N   0  0  0  0  0  0  0  0  0  0  0  0
   39.0344   39.0821   31.6520 C   0  0  0  0  0  0  0  0  0  0  0  0
   38.8395   39.6708   30.4093 C   0  0  0  0  0  0  0  0  0  0  0  0
   38.8330   36.6581   29.7706 S   0  0  0  0  0  0  0  0  0  0  0  0
   39.2023   39.8857   32.7710 N   0  0  0  0  0  0  0  0  0  0  0  0
   39.4959   39.2986   29.2479 N   0  0  0  0  0  0  0  0  0  0  0  0
   38.1856   40.8705   30.2651 N   0  0  0  0  0  0  0  0  0  0  0  0
   37.9151   34.2563   28.4925 C   0  0  0  0  0  0  0  0  0  0  0  0
   38.0768   41.4531   29.0718 C   0  0  0  0  0  0  0  0  0  0  0  0
   38.6342   40.9709   27.9399 C   0  0  0  0  0  0  0  0  0  0  0  0
   38.5133   41.5298   26.6750 C   0  0  0  0  0  0  0  0  0  0  0  0
   39.3671   39.7762   28.0854 C   0  0  0  0  0  0  0  0  0  0  0  0
  1  2  1  0
  1  3  1  0
  2  4  1  0
  3  5  1  0
  4  6  1  0
  4  7  1  0
  5  7  1  0
  5  8  1  0
  7  9  1  0
  8 10  1  0
 10 11  1  0
 11 12  1  0
  8 13  1  0
  9 13  1  0
 11 14  2  0
 12 15  1  0
 12 16  1  0
  9 17  1  1
 16 18  1  0
 18 19  1  0
 19 20  1  0
 15 21  1  0
 19 21  1  0
M  END
$$$$
84
     RDKit          3D

 21 24  0  0  0  0  0  0  0  0999 V2000
   36.3367   35.0125   33.4818 C   0  0  0  0  0  0  0  0  0  0  0  0
   35.9160   34.1370   32.6178 C   0  0  0  0  0  0  0  0  0  0  0  0
   36.0291   35.1162   34.7937 N   0  0  0  0  0  0  0  0  0  0  0  0
   37.2810   36.0062   32.9111 C   0  0  1  0  0  0  0  0  0  0  0  0
   37.5303   35.7300   31.5945 C   0  0  1  0  0  0  0  0  0  0  0  0
   38.5110   36.5163   30.8414 N   0  0  0  0  0  0  0  0  0  0  0  0
   34.9696   33.1711   33.1522 O   0  0  0  0  0  0  0  0  0  0  0  0
   37.8264   37.3458   33.3104 C   0  0  0  0  0  0  0  0  0  0  0  0
   37.5633   37.5043   34.7083 O   0  0  0  0  0  0  0  0  0  0  0  0
   37.0512   34.7249   30.7492 C   0  0  0  0  0  0  0  0  0  0  0  0
   38.5795   35.9029   29.5712 C   0  0  0  0  0  0  0  0  0  0  0  0
   36.1524   33.9500   31.3551 N   0  0  0  0  0  0  0  0  0  0  0  0
   38.4873   38.1071   32.7357 N   0  0  0  0  0  0  0  0  0  0  0  0
   34.0332   32.8675   32.1441 C   0  0  0  0  0  0  0  0  0  0  0  0
   37.6722   34.8523   29.5208 N   0  0  0  0  0  0  0  0  0  0  0  0
   39.4023   36.2428   28.4866 N   0  0  0  0  0  0  0  0  0  0  0  0
   37.5900   33.8031   28.3834 C   0  0  0  0  0  0  0  0  0  0  0  0
   39.0266   37.7088   31.4324 C   0  0  0  0  0  0  0  0  0  0  0  0
   39.2908   35.3536   27.3634 C   0  0  2  0  0  0  0  0  0  0  0  0
   40.0222   35.7025   26.3023 N   0  0  0  0  0  0  0  0  0  0  0  0
   38.4201   34.2999   27.3707 C   0  0  0  0  0  0  0  0  0  0  0  0
  1  2  1  0
  1  3  1  0
  4  1  1  6
  4  5  1  0
  5  6  1  0
  2  7  1  0
  4  8  1  0
  8  9  2  0
  5 10  1  1
  6 11  1  0
  2 12  1  0
 10 12  1  0
  8 13  1  0
  7 14  1  0
 10 15  1  0
 11 15  1  0
 11 16  1  0
 15 17  1  0
  6 18  1  0
 13 18  1  0
 16 19  1  0
 19 20  1  6
 17 21  1  0
 19 21  1  0
M  END
$$$$
85
     RDKit          3D

 21 23  0  0  0  0  0  0  0  0999 V2000
   36.3367   35.0125   33.4818 C   0  0  0  0  0  0  0  0  0  0  0  0
   35.9160   34.1370   32.6178 C   0  0  0  0  0  0  0  0  0  0  0  0
   36.0291   35.1162   34.7937 N   0  0  0  0  0  0  0  0  0  0  0  0
   37.2810   36.0062   32.9111 C   0  0  1  0  0  0  0  0  0  0  0  0
   37.5303   35.7300   31.5945 C   0  0  1  0  0  0  0  0  0  0  0  0
   38.5110   36.5163   30.8414 N   0  0  0  0  0  0  0  0  0  0  0  0
   34.9696   33.1711   33.1522 O   0  0  0  0  0  0  0  0  0  0  0  0
   37.8264   37.3458   33.3104 C   0  0  0  0  0  0  0  0  0  0  0  0
   37.5633   37.5043   34.7083 O   0  0  0  0  0  0  0  0  0  0  0  0
   37.0512   34.7249   30.7492 C   0  0  0  0  0  0  0  0  0  0  0  0
   38.5795   35.9029   29.5712 C   0  0  0  0  0  0  0  0  0  0  0  0
   36.1524   33.9500   31.3551 N   0  0  0  0  0  0  0  0  0  0  0  0
   38.4873   38.1071   32.7357 N   0  0  0  0  0  0  0  0  0  0  0  0
   34.0332   32.8675   32.1441 C   0  0  0  0  0  0  0  0  0  0  0  0
   37.6722   34.8523   29.5208 N   0  0  0  0  0  0  0  0  0  0  0  0
   38.9391   37.7501   31.3779 C   0  0  1  0  0  0  0  0  0  0  0  0
   37.5191   33.8388   28.4561 C   0  0  0  0  0  0  0  0  0  0  0  0
   37.7718   34.5776   27.2089 O   0  0  0  0  0  0  0  0  0  0  0  0
   38.4887   33.6580   26.2763 C   0  0  0  0  0  0  0  0  0  0  0  0
   39.7763   38.6768   30.8698 N   0  0  0  0  0  0  0  0  0  0  0  0
   37.6476   32.6819   28.6156 O   0  0  0  0  0  0  0  0  0  0  0  0
  1  2  1  0
  1  3  1  0
  4  1  1  6
  4  5  1  0
  5  6  1  0
  2  7  1  0
  4  8  1  0
  8  9  2  0
  5 10  1  1
  6 11  1  0
  2 12  1  0
 10 12  1  0
  8 13  1  0
  7 14  1  0
 10 15  1  0
 11 15  1  0
  6 16  1  0
 13 16  1  0
 15 17  1  0
 17 18  1  0
 18 19  1  0
 16 20  1  1
 17 21  2  0
M  END
$$$$
86
     RDKit          3D

 21 23  0  0  0  0  0  0  0  0999 V2000
   37.7914   37.3496   33.1079 C   0  0  2  0  0  0  0  0  0  0  0  0
   38.3958   37.3825   31.9755 N   0  0  0  0  0  0  0  0  0  0  0  0
   38.2580   38.2193   34.1317 N   0  0  0  0  0  0  0  0  0  0  0  0
   38.0878   36.6075   31.2316 C   0  0  0  0  0  0  0  0  0  0  0  0
   37.2708   35.4441   31.6053 N   0  0  0  0  0  0  0  0  0  0  0  0
   38.6809   36.3902   29.7975 N   0  0  0  0  0  0  0  0  0  0  0  0
   37.1377   36.0588   33.0796 C   0  0  2  0  0  0  0  0  0  0  0  0
   39.5308   37.3060   29.3040 C   0  0  0  0  0  0  0  0  0  0  0  0
   38.3181   35.2699   28.9693 C   0  0  0  0  0  0  0  0  0  0  0  0
   36.3342   35.1503   33.8210 N   0  0  0  0  0  0  0  0  0  0  0  0
   38.8600   35.4788   27.6346 C   0  0  1  0  0  0  0  0  0  0  0  0
   37.6430   33.9688   28.8956 C   0  0  0  0  0  0  0  0  0  0  0  0
   39.6862   36.7514   27.8763 N   0  0  0  0  0  0  0  0  0  0  0  0
   40.6696   37.3527   26.9446 C   0  0  0  0  0  0  0  0  0  0  0  0
   38.8671   34.8795   26.3866 C   0  0  1  0  0  0  0  0  0  0  0  0
   39.4989   35.2393   25.2148 O   0  0  0  0  0  0  0  0  0  0  0  0
   40.4840   38.4466   26.5924 O   0  0  0  0  0  0  0  0  0  0  0  0
   38.1246   33.6477   26.4918 C   0  0  0  0  0  0  0  0  0  0  0  0
   41.7541   36.6808   26.6259 O   0  0  0  0  0  0  0  0  0  0  0  0
   37.9525   32.8643   25.2662 C   0  0  0  0  0  0  0  0  0  0  0  0
   37.5733   33.2776   27.7098 C   0  0  0  0  0  0  0  0  0  0  0  0
  1  2  1  0
  1  3  1  1
  2  4  1  0
  4  5  1  0
  4  6  1  0
  1  7  1  0
  5  7  1  0
  6  8  1  0
  6  9  1  0
  7 10  1  6
  9 11  1  0
  9 12  1  0
  8 13  1  0
 11 13  1  1
 13 14  1  0
 11 15  1  0
 15 16  1  1
 14 17  1  0
 15 18  1  0
 14 19  2  0
 18 20  1  0
 12 21  1  0
 18 21  1  0
M  END
$$$$
87
     RDKit          3D

 22 27  0  0  0  0  0  0  0  0999 V2000
   35.6127   33.7004   32.8725 C   0  0  0  0  0  0  0  0  0  0  0  0
   35.6052   33.5454   31.5115 C   0  0  0  0  0  0  0  0  0  0  0  0
   36.7902   34.1886   30.9759 C   0  0  2  0  0  0  0  0  0  0  0  0
   36.3314   34.9669   33.1845 N   0  0  0  0  0  0  0  0  0  0  0  0
   36.4882   35.6811   34.3249 C   0  0  0  0  0  0  0  0  0  0  0  0
   36.9931   36.6626   34.4553 N   0  0  0  0  0  0  0  0  0  0  0  0
   37.0649   35.2400   31.9875 C   0  0  0  0  0  0  0  0  0  0  0  0
   37.9052   36.4601   31.9288 C   0  0  1  0  0  0  0  0  0  0  0  0
   37.9148   37.1226   33.2376 C   0  0  1  0  0  0  0  0  0  0  0  0
   38.7028   36.7102   30.9355 C   0  0  2  0  0  0  0  0  0  0  0  0
   39.4842   37.8815   30.9294 N   0  0  0  0  0  0  0  0  0  0  0  0
   37.2404   34.2019   29.6469 C   0  0  1  0  0  0  0  0  0  0  0  0
   39.3909   38.6442   32.0539 C   0  0  0  0  0  0  0  0  0  0  0  0
   38.7095   38.3256   33.3094 N   0  0  0  0  0  0  0  0  0  0  0  0
   38.0026   35.1387   29.0643 N   0  0  0  0  0  0  0  0  0  0  0  0
   37.0142   33.0705   29.0209 O   0  0  0  0  0  0  0  0  0  0  0  0
   37.9253   32.8766   27.9521 C   0  0  0  0  0  0  0  0  0  0  0  0
   38.4394   34.6644   27.8043 C   0  0  1  0  0  0  0  0  0  0  0  0
   38.7198   36.1861   29.6372 C   0  0  1  0  0  0  0  0  0  0  0  0
   38.1267   33.8055   27.0869 C   0  0  0  0  0  0  0  0  0  0  0  0
   39.2929   36.6811   28.4308 C   0  0  0  0  0  0  0  0  0  0  0  0
   39.1601   35.9952   27.4710 N   0  0  0  0  0  0  0  0  0  0  0  0
  1  2  1  0
  3  2  1  6
  1  4  1  0
  4  5  1  0
  5  6  1  0
  3  7  1  0
  4  7  1  0
  8  7  1  1
  9  6  1  6
  8  9  1  0
  8 10  1  0
 10 11  1  6
  3 12  1  0
 11 13  1  0
  9 14  1  0
 13 14  1  0
 12 15  1  0
 12 16  1  1
 16 17  1  0
 15 18  1  0
 10 19  1  0
 15 19  1  0
 17 20  1  0
 18 20  1  6
 19 21  1  6
 18 22  1  0
 21 22  1  0
M  END
$$$$
88
     RDKit          3D

 22 26  0  0  0  0  0  0  0  0999 V2000
   36.3367   35.0125   33.4818 N   0  0  0  0  0  0  0  0  0  0  0  0
   36.2143   34.4258   32.3677 C   0  0  2  0  0  0  0  0  0  0  0  0
   35.4504   33.3534   32.0973 N   0  0  0  0  0  0  0  0  0  0  0  0
   37.0769   34.8972   31.2335 C   0  0  0  0  0  0  0  0  0  0  0  0
   37.0795   34.2716   30.0530 C   0  0  2  0  0  0  0  0  0  0  0  0
   37.7333   36.0412   31.6882 C   0  0  0  0  0  0  0  0  0  0  0  0
   36.4907   33.0863   29.8580 N   0  0  0  0  0  0  0  0  0  0  0  0
   37.5600   36.5416   32.9295 N   0  0  0  0  0  0  0  0  0  0  0  0
   36.9700   36.1207   33.7678 C   0  0  0  0  0  0  0  0  0  0  0  0
   36.5430   32.5022   28.6379 C   0  0  0  0  0  0  0  0  0  0  0  0
   37.6166   33.3794   27.9743 C   0  0  0  0  0  0  0  0  0  0  0  0
   37.8789   34.6087   28.9505 N   0  0  0  0  0  0  0  0  0  0  0  0
   38.8096   35.5793   28.8171 C   0  0  2  0  0  0  0  0  0  0  0  0
   38.8940   36.5278   29.7538 C   0  0  1  0  0  0  0  0  0  0  0  0
   39.5274   35.5338   27.5019 N   0  0  0  0  0  0  0  0  0  0  0  0
   38.6835   36.8236   30.8577 N   0  0  0  0  0  0  0  0  0  0  0  0
   40.4048   36.6040   27.4513 C   0  0  0  0  0  0  0  0  0  0  0  0
   41.2497   36.9725   26.5555 C   0  0  0  0  0  0  0  0  0  0  0  0
   40.0900   37.2484   28.8572 C   0  0  0  0  0  0  0  0  0  0  0  0
   42.5110   36.7044   26.6663 O   0  0  0  0  0  0  0  0  0  0  0  0
   40.7385   37.3943   25.4054 O   0  0  0  0  0  0  0  0  0  0  0  0
   35.5418   32.7001   30.8199 C   0  0  0  0  0  0  0  0  0  0  0  0
  2  1  1  1
  2  3  1  0
  2  4  1  0
  4  5  1  0
  4  6  1  0
  5  7  1  1
  6  8  1  0
  1  9  1  0
  8  9  1  0
  7 10  1  0
 10 11  1  0
  5 12  1  0
 11 12  1  0
 12 13  1  0
 13 14  1  0
 13 15  1  6
  6 16  1  0
 14 16  1  0
 15 17  1  0
 17 18  1  0
 14 19  1  1
 17 19  1  0
 18 20  1  0
 18 21  2  0
  3 22  1  0
  7 22  1  0
M  END
$$$$
89
     RDKit          3D

 22 27  0  0  0  0  0  0  0  0999 V2000
   35.6127   33.7004   32.8725 C   0  0  0  0  0  0  0  0  0  0  0  0
   35.6052   33.5454   31.5115 C   0  0  0  0  0  0  0  0  0  0  0  0
   36.7902   34.1886   30.9759 C   0  0  2  0  0  0  0  0  0  0  0  0
   36.3314   34.9669   33.1845 N   0  0  0  0  0  0  0  0  0  0  0  0
   36.4882   35.6811   34.3249 C   0  0  0  0  0  0  0  0  0  0  0  0
   36.9931   36.6626   34.4553 N   0  0  0  0  0  0  0  0  0  0  0  0
   37.0649   35.2400   31.9875 C   0  0  0  0  0  0  0  0  0  0  0  0
   37.9052   36.4601   31.9288 C   0  0  1  0  0  0  0  0  0  0  0  0
   37.9148   37.1226   33.2376 C   0  0  1  0  0  0  0  0  0  0  0  0
   38.7028   36.7102   30.9355 C   0  0  2  0  0  0  0  0  0  0  0  0
   39.4842   37.8815   30.9294 N   0  0  0  0  0  0  0  0  0  0  0  0
   37.2404   34.2019   29.6469 C   0  0  1  0  0  0  0  0  0  0  0  0
   39.3909   38.6442   32.0539 C   0  0  0  0  0  0  0  0  0  0  0  0
   38.7095   38.3256   33.3094 N   0  0  0  0  0  0  0  0  0  0  0  0
   38.0026   35.1387   29.0643 N   0  0  0  0  0  0  0  0  0  0  0  0
   37.0142   33.0705   29.0209 O   0  0  0  0  0  0  0  0  0  0  0  0
   37.9253   32.8766   27.9521 C   0  0  0  0  0  0  0  0  0  0  0  0
   38.4394   34.6644   27.8043 C   0  0  2  0  0  0  0  0  0  0  0  0
   38.7198   36.1861   29.6372 C   0  0  1  0  0  0  0  0  0  0  0  0
   39.0529   35.8365   27.1602 C   0  0  0  0  0  0  0  0  0  0  0  0
   39.3387   36.8711   28.5028 C   0  0  0  0  0  0  0  0  0  0  0  0
   38.2907   33.5694   27.2461 C   0  0  0  0  0  0  0  0  0  0  0  0
  1  2  1  0
  3  2  1  6
  1  4  1  0
  4  5  1  0
  5  6  1  0
  3  7  1  0
  4  7  1  0
  8  7  1  1
  9  6  1  6
  8  9  1  0
  8 10  1  0
 10 11  1  6
  3 12  1  0
 11 13  1  0
  9 14  1  0
 13 14  1  0
 12 15  1  0
 12 16  1  1
 16 17  1  0
 15 18  1  0
 10 19  1  0
 15 19  1  0
 18 20  1  6
 19 21  1  6
 20 21  1  0
 17 22  1  0
 18 22  1  0
M  END
$$$$
9
     RDKit          3D

 16 18  0  0  0  0  0  0  0  0999 V2000
   35.6289   33.4301   32.1832 C   0  0  0  0  0  0  0  0  0  0  0  0
   36.0227   33.7099   30.9697 C   0  0  0  0  0  0  0  0  0  0  0  0
   36.1227   34.5101   32.8826 N   0  0  0  0  0  0  0  0  0  0  0  0
   37.0741   34.5792   30.7605 C   0  0  1  0  0  0  0  0  0  0  0  0
   37.7505   34.9785   29.6929 C   0  0  1  0  0  0  0  0  0  0  0  0
   37.0538   35.2780   32.0820 C   0  0  0  0  0  0  0  0  0  0  0  0
   38.5901   36.1236   29.7608 C   0  0  2  0  0  0  0  0  0  0  0  0
   37.8853   36.3942   32.1778 C   0  0  0  0  0  0  0  0  0  0  0  0
   39.4449   36.5357   28.6546 N   0  0  0  0  0  0  0  0  0  0  0  0
   39.2344   36.0034   27.4215 C   0  0  1  0  0  0  0  0  0  0  0  0
   39.8750   36.6917   26.4183 C   0  0  0  0  0  0  0  0  0  0  0  0
   37.7225   34.0302   28.3973 C   0  0  0  0  0  0  0  0  0  0  0  0
   38.5983   36.8097   31.1386 C   0  0  0  0  0  0  0  0  0  0  0  0
   38.4708   34.7506   27.3682 C   0  0  0  0  0  0  0  0  0  0  0  0
   40.5843   37.5827   26.4020 O   0  0  0  0  0  0  0  0  0  0  0  0
   39.3709   36.2238   25.0381 O   0  0  0  0  0  0  0  0  0  0  0  0
  1  2  1  0
  1  3  1  0
  4  2  1  6
  4  5  1  0
  3  6  1  0
  4  6  1  0
  5  7  1  0
  6  8  1  0
  7  9  1  0
  9 10  1  0
 10 11  1  1
  5 12  1  1
  7 13  1  1
  8 13  1  0
 10 14  1  0
 12 14  1  0
 11 15  2  0
 11 16  1  0
M  END
$$$$
90
     RDKit          3D

 22 24  0  0  0  0  0  0  0  0999 V2000
   35.3652   33.1354   32.5524 O   0  0  0  0  0  0  0  0  0  0  0  0
   35.8374   33.7533   31.5252 C   0  0  0  0  0  0  0  0  0  0  0  0
   36.8008   34.8303   31.7959 C   0  0  2  0  0  0  0  0  0  0  0  0
   36.0582   33.2146   30.2789 N   0  0  0  0  0  0  0  0  0  0  0  0
   36.8198   33.6942   29.3138 C   0  0  1  0  0  0  0  0  0  0  0  0
   36.7799   35.4741   33.0854 N   0  0  0  0  0  0  0  0  0  0  0  0
   37.5258   36.6042   33.1194 C   0  0  0  0  0  0  0  0  0  0  0  0
   37.5958   35.5022   30.8906 C   0  0  1  0  0  0  0  0  0  0  0  0
   38.2454   36.5378   31.3309 N   0  0  0  0  0  0  0  0  0  0  0  0
   37.7067   34.9544   29.5683 N   0  0  0  0  0  0  0  0  0  0  0  0
   38.2484   37.0987   32.3634 C   0  0  0  0  0  0  0  0  0  0  0  0
   39.1220   38.3499   32.8072 C   0  0  1  0  0  0  0  0  0  0  0  0
   39.7270   38.2458   33.9764 O   0  0  0  0  0  0  0  0  0  0  0  0
   40.2485   38.4979   31.8789 C   0  0  0  0  0  0  0  0  0  0  0  0
   41.2416   39.2389   32.2857 O   0  0  0  0  0  0  0  0  0  0  0  0
   40.2046   38.0775   30.5728 O   0  0  0  0  0  0  0  0  0  0  0  0
   38.6038   35.3335   28.5796 C   0  0  2  0  0  0  0  0  0  0  0  0
   39.3466   36.4192   28.5701 N   0  0  0  0  0  0  0  0  0  0  0  0
   38.5374   34.6810   27.3360 N   0  0  0  0  0  0  0  0  0  0  0  0
   37.7163   33.4673   27.3327 C   0  0  1  0  0  0  0  0  0  0  0  0
   36.9405   33.1014   28.1530 N   0  0  0  0  0  0  0  0  0  0  0  0
   37.8920   32.9903   25.9224 C   0  0  0  0  0  0  0  0  0  0  0  0
  1  2  2  0
  2  3  1  0
  2  4  1  0
  5  4  1  1
  3  6  1  6
  6  7  1  0
  3  8  1  0
  8  9  1  1
  5 10  1  0
  8 10  1  0
  7 11  1  0
  9 11  1  0
 11 12  1  0
 12 13  1  1
 12 14  1  0
 14 15  1  0
 14 16  2  0
 10 17  1  0
 17 18  1  6
 17 19  1  0
 19 20  1  0
  5 21  1  0
 20 21  1  0
 20 22  1  6
M  END
$$$$
91
     RDKit          3D

 22 25  0  0  0  0  0  0  0  0999 V2000
   37.1198   36.5681   33.8826 N   0  0  0  0  0  0  0  0  0  0  0  0
   38.0011   37.2101   33.3742 C   0  0  0  0  0  0  0  0  0  0  0  0
   36.4509   35.5098   33.3610 C   0  0  0  0  0  0  0  0  0  0  0  0
   36.7336   35.1659   32.0781 N   0  0  0  0  0  0  0  0  0  0  0  0
   38.2524   36.8087   32.1412 N   0  0  0  0  0  0  0  0  0  0  0  0
   38.7586   38.3358   34.0701 C   0  0  0  0  0  0  0  0  0  0  0  0
   35.5579   34.7764   34.1283 N   0  0  0  0  0  0  0  0  0  0  0  0
   39.2721   37.6220   31.3473 C   0  0  0  0  0  0  0  0  0  0  0  0
   38.6914   38.4695   35.3398 O   0  0  0  0  0  0  0  0  0  0  0  0
   37.7076   35.8856   31.4181 C   0  0  1  0  0  0  0  0  0  0  0  0
   38.0608   35.4881   30.1399 C   0  0  2  0  0  0  0  0  0  0  0  0
   38.9837   36.2467   29.4098 C   0  0  0  0  0  0  0  0  0  0  0  0
   39.5872   37.2695   30.0501 N   0  0  0  0  0  0  0  0  0  0  0  0
   37.4892   34.3046   29.3462 C   0  0  2  0  0  0  0  0  0  0  0  0
   39.2010   35.8351   28.1537 N   0  0  0  0  0  0  0  0  0  0  0  0
   38.7193   34.7791   27.5236 C   0  0  0  0  0  0  0  0  0  0  0  0
   36.6127   33.4798   30.1937 O   0  0  0  0  0  0  0  0  0  0  0  0
   37.8359   34.0057   28.2207 C   0  0  0  0  0  0  0  0  0  0  0  0
   37.2725   32.8836   27.6000 O   0  0  0  0  0  0  0  0  0  0  0  0
   37.6003   32.9048   26.2453 C   0  0  0  0  0  0  0  0  0  0  0  0
   39.1367   34.4088   26.1377 C   0  0  0  0  0  0  0  0  0  0  0  0
   38.5925   33.3469   25.6050 C   0  0  0  0  0  0  0  0  0  0  0  0
  1  2  1  0
  1  3  1  0
  3  4  1  0
  2  5  1  0
  2  6  1  0
  3  7  1  0
  5  8  1  0
  6  9  1  0
 10  4  1  1
  5 10  1  0
 10 11  1  0
 11 12  1  6
  8 13  1  0
 12 13  1  0
 11 14  1  0
 12 15  1  0
 15 16  1  0
 14 17  1  1
 14 18  1  0
 16 18  1  0
 18 19  1  0
 19 20  1  0
 16 21  1  0
 20 22  1  0
 21 22  1  0
M  END
$$$$
92
     RDKit          3D

 22 26  0  0  0  0  0  0  0  0999 V2000
   35.6127   33.7004   32.8725 C   0  0  0  0  0  0  0  0  0  0  0  0
   36.4362   34.7897   33.1048 C   0  0  2  0  0  0  0  0  0  0  0  0
   36.5326   35.4407   34.2825 C   0  0  0  0  0  0  0  0  0  0  0  0
   35.5243   33.1469   31.5441 C   0  0  0  0  0  0  0  0  0  0  0  0
   36.2097   33.7026   30.4961 C   0  0  0  0  0  0  0  0  0  0  0  0
   37.1444   35.3731   31.8863 C   0  0  1  0  0  0  0  0  0  0  0  0
   37.0431   34.8127   30.6920 C   0  0  0  0  0  0  0  0  0  0  0  0
   37.8153   35.3607   29.6505 N   0  0  0  0  0  0  0  0  0  0  0  0
   38.1467   34.8383   28.5147 C   0  0  0  0  0  0  0  0  0  0  0  0
   37.1792   36.7500   34.3310 C   0  0  0  0  0  0  0  0  0  0  0  0
   37.8523   36.6877   32.2792 C   0  0  1  0  0  0  0  0  0  0  0  0
   37.8759   33.5827   28.1973 O   0  0  0  0  0  0  0  0  0  0  0  0
   37.8517   37.2399   33.4393 C   0  0  0  0  0  0  0  0  0  0  0  0
   38.9600   35.5619   27.4720 C   0  0  2  0  0  0  0  0  0  0  0  0
   39.5852   36.7807   27.9554 C   0  0  1  0  0  0  0  0  0  0  0  0
   38.8719   35.1244   26.1739 C   0  0  0  0  0  0  0  0  0  0  0  0
   39.6831   37.2295   29.2702 C   0  0  0  0  0  0  0  0  0  0  0  0
   38.5424   36.5731   30.1827 C   0  0  2  0  0  0  0  0  0  0  0  0
   38.5643   37.1889   31.2894 N   0  0  0  0  0  0  0  0  0  0  0  0
   40.2430   37.3636   26.8151 C   0  0  0  0  0  0  0  0  0  0  0  0
   39.6080   35.8703   25.2645 C   0  0  0  0  0  0  0  0  0  0  0  0
   40.1735   36.9252   25.5973 C   0  0  0  0  0  0  0  0  0  0  0  0
  2  1  1  6
  2  3  1  0
  1  4  1  0
  4  5  1  0
  2  6  1  0
  5  7  1  0
  6  7  1  6
  7  8  1  0
  8  9  1  0
  3 10  1  0
  6 11  1  0
  9 12  2  0
 10 13  1  0
 11 13  1  1
  9 14  1  0
 14 15  1  0
 14 16  1  6
 15 17  1  1
  8 18  1  0
 18 17  1  1
 11 19  1  0
 18 19  1  0
 15 20  1  0
 16 21  1  0
 20 22  1  0
 21 22  1  0
M  END
$$$$
93
     RDKit          3D

 22 24  0  0  0  0  0  0  0  0999 V2000
   35.3652   33.1354   32.5524 O   0  0  0  0  0  0  0  0  0  0  0  0
   35.8374   33.7533   31.5252 C   0  0  0  0  0  0  0  0  0  0  0  0
   36.8008   34.8303   31.7959 C   0  0  2  0  0  0  0  0  0  0  0  0
   36.0582   33.2146   30.2789 N   0  0  0  0  0  0  0  0  0  0  0  0
   36.8198   33.6942   29.3138 C   0  0  1  0  0  0  0  0  0  0  0  0
   36.7799   35.4741   33.0854 N   0  0  0  0  0  0  0  0  0  0  0  0
   37.5258   36.6042   33.1194 C   0  0  0  0  0  0  0  0  0  0  0  0
   37.5958   35.5022   30.8906 C   0  0  1  0  0  0  0  0  0  0  0  0
   38.2454   36.5378   31.3309 N   0  0  0  0  0  0  0  0  0  0  0  0
   37.7067   34.9544   29.5683 N   0  0  0  0  0  0  0  0  0  0  0  0
   38.2484   37.0987   32.3634 C   0  0  0  0  0  0  0  0  0  0  0  0
   39.1220   38.3499   32.8072 C   0  0  1  0  0  0  0  0  0  0  0  0
   39.7270   38.2458   33.9764 O   0  0  0  0  0  0  0  0  0  0  0  0
   40.2485   38.4979   31.8789 C   0  0  0  0  0  0  0  0  0  0  0  0
   41.2416   39.2389   32.2857 O   0  0  0  0  0  0  0  0  0  0  0  0
   40.2046   38.0775   30.5728 O   0  0  0  0  0  0  0  0  0  0  0  0
   38.6038   35.3335   28.5796 C   0  0  2  0  0  0  0  0  0  0  0  0
   39.3466   36.4192   28.5701 N   0  0  0  0  0  0  0  0  0  0  0  0
   38.5374   34.6810   27.3360 N   0  0  0  0  0  0  0  0  0  0  0  0
   37.7163   33.4673   27.3327 C   0  0  2  0  0  0  0  0  0  0  0  0
   37.1339   33.0354   28.2459 N   0  0  0  0  0  0  0  0  0  0  0  0
   38.0412   32.9039   25.9909 N   0  0  0  0  0  0  0  0  0  0  0  0
  1  2  2  0
  2  3  1  0
  2  4  1  0
  5  4  1  1
  3  6  1  6
  6  7  1  0
  3  8  1  0
  8  9  1  1
  5 10  1  0
  8 10  1  0
  7 11  1  0
  9 11  1  0
 11 12  1  0
 12 13  1  1
 12 14  1  0
 14 15  1  0
 14 16  2  0
 10 17  1  0
 17 18  1  6
 17 19  1  0
 19 20  1  0
  5 21  1  0
 20 21  1  0
 20 22  1  1
M  END
$$$$
94
     RDKit          3D

 22 26  0  0  0  0  0  0  0  0999 V2000
   35.6127   33.7004   32.8725 C   0  0  0  0  0  0  0  0  0  0  0  0
   36.4362   34.7897   33.1048 C   0  0  2  0  0  0  0  0  0  0  0  0
   36.5326   35.4407   34.2825 C   0  0  0  0  0  0  0  0  0  0  0  0
   35.5243   33.1469   31.5441 C   0  0  0  0  0  0  0  0  0  0  0  0
   37.2220   36.7188   34.3441 C   0  0  1  0  0  0  0  0  0  0  0  0
   36.2149   33.7054   30.4900 C   0  0  1  0  0  0  0  0  0  0  0  0
   37.1261   34.7874   30.7658 C   0  0  2  0  0  0  0  0  0  0  0  0
   37.5353   37.3577   35.5713 O   0  0  0  0  0  0  0  0  0  0  0  0
   38.1285   37.0071   33.2298 C   0  0  2  0  0  0  0  0  0  0  0  0
   38.8586   38.2450   33.2819 N   0  0  0  0  0  0  0  0  0  0  0  0
   39.7798   38.5975   32.4446 C   0  0  1  0  0  0  0  0  0  0  0  0
   37.2184   35.4321   31.9828 C   0  0  1  0  0  0  0  0  0  0  0  0
   37.8846   36.5284   32.0866 N   0  0  0  0  0  0  0  0  0  0  0  0
   37.8356   35.2575   29.6200 C   0  0  1  0  0  0  0  0  0  0  0  0
   38.7487   36.3603   29.7456 C   0  0  0  0  0  0  0  0  0  0  0  0
   37.8907   34.4939   28.4175 N   0  0  0  0  0  0  0  0  0  0  0  0
   37.1712   33.4293   28.2586 C   0  0  0  0  0  0  0  0  0  0  0  0
   38.6805   37.1057   31.0106 C   0  0  2  0  0  0  0  0  0  0  0  0
   39.5603   38.1003   31.1538 N   0  0  0  0  0  0  0  0  0  0  0  0
   36.4027   33.0031   29.2768 N   0  0  0  0  0  0  0  0  0  0  0  0
   37.2557   32.8030   27.0668 N   0  0  0  0  0  0  0  0  0  0  0  0
   40.5515   39.6964   32.6007 N   0  0  0  0  0  0  0  0  0  0  0  0
  2  1  1  6
  2  3  1  0
  1  4  1  0
  3  5  1  0
  6  4  1  1
  7  6  1  6
  5  8  1  1
  5  9  1  0
  9 10  1  6
 10 11  1  0
  2 12  1  0
  7 12  1  0
  9 13  1  0
 12 13  1  6
  7 14  1  0
 14 15  1  1
 14 16  1  0
 16 17  1  0
 13 18  1  0
 18 15  1  1
 11 19  1  0
 18 19  1  0
  6 20  1  0
 17 20  1  0
 17 21  1  0
 11 22  1  6
M  END
$$$$
95
     RDKit          3D

 22 24  0  0  0  0  0  0  0  0999 V2000
   37.7914   37.3496   33.1079 N   0  0  0  0  0  0  0  0  0  0  0  0
   37.3197   36.2436   33.1024 C   0  0  2  0  0  0  0  0  0  0  0  0
   38.6881   37.6061   32.0925 C   0  0  2  0  0  0  0  0  0  0  0  0
   39.4228   38.7085   31.9217 N   0  0  0  0  0  0  0  0  0  0  0  0
   38.6762   36.7481   30.8880 C   0  0  0  0  0  0  0  0  0  0  0  0
   39.5943   39.7047   32.9058 C   0  0  0  0  0  0  0  0  0  0  0  0
   39.4268   37.0164   29.8340 N   0  0  0  0  0  0  0  0  0  0  0  0
   37.1648   35.2932   32.0171 N   0  0  0  0  0  0  0  0  0  0  0  0
   39.7349   39.0207   30.6157 C   0  0  1  0  0  0  0  0  0  0  0  0
   36.3913   34.1195   32.0663 C   0  0  0  0  0  0  0  0  0  0  0  0
   40.3443   40.3938   30.4523 O   0  0  0  0  0  0  0  0  0  0  0  0
   36.2796   33.5493   30.8330 C   0  0  0  0  0  0  0  0  0  0  0  0
   39.5570   41.2473   29.6629 C   0  0  0  0  0  0  0  0  0  0  0  0
   37.7719   35.5836   30.9266 C   0  0  2  0  0  0  0  0  0  0  0  0
   38.3791   40.6963   29.1525 C   0  0  0  0  0  0  0  0  0  0  0  0
   36.5179   36.0061   34.2995 N   0  0  0  0  0  0  0  0  0  0  0  0
   37.3816   34.4815   30.1261 C   0  0  2  0  0  0  0  0  0  0  0  0
   40.0766   38.2635   29.5956 C   0  0  0  0  0  0  0  0  0  0  0  0
   37.6843   34.1535   28.6851 C   0  0  0  0  0  0  0  0  0  0  0  0
   37.9838   41.3386   27.9421 O   0  0  0  0  0  0  0  0  0  0  0  0
   37.4409   32.9770   28.2852 O   0  0  0  0  0  0  0  0  0  0  0  0
   38.2674   34.9638   27.8760 N   0  0  0  0  0  0  0  0  0  0  0  0
  1  2  1  0
  3  1  1  6
  3  4  1  0
  3  5  1  0
  4  6  1  0
  5  7  1  0
  2  8  1  0
  4  9  1  0
  8 10  1  0
  9 11  1  1
 10 12  1  0
 11 13  1  0
 14  5  1  1
  8 14  1  0
 13 15  1  0
  2 16  1  6
 12 17  1  0
 14 17  1  0
  7 18  1  0
  9 18  1  0
 17 19  1  6
 15 20  1  0
 19 21  2  0
 19 22  1  0
M  END
$$$$
96
     RDKit          3D

 22 26  0  0  0  0  0  0  0  0999 V2000
   37.7914   37.3496   33.1079 C   0  0  2  0  0  0  0  0  0  0  0  0
   38.3958   37.3825   31.9755 N   0  0  0  0  0  0  0  0  0  0  0  0
   38.2580   38.2193   34.1317 N   0  0  0  0  0  0  0  0  0  0  0  0
   38.0878   36.6075   31.2316 C   0  0  1  0  0  0  0  0  0  0  0  0
   37.1533   36.1784   33.5308 N   0  0  0  0  0  0  0  0  0  0  0  0
   36.6252   36.0605   34.8434 C   0  0  2  0  0  0  0  0  0  0  0  0
   37.0782   36.9842   35.8220 N   0  0  0  0  0  0  0  0  0  0  0  0
   37.8775   37.9401   35.4344 C   0  0  0  0  0  0  0  0  0  0  0  0
   38.6483   36.5061   29.8235 N   0  0  0  0  0  0  0  0  0  0  0  0
   37.0678   35.5180   32.4271 C   0  0  0  0  0  0  0  0  0  0  0  0
   37.2946   35.4967   31.3508 C   0  0  2  0  0  0  0  0  0  0  0  0
   37.1277   34.5289   30.2257 C   0  0  0  0  0  0  0  0  0  0  0  0
   38.0300   34.8551   29.2531 C   0  0  1  0  0  0  0  0  0  0  0  0
   38.1469   34.7445   27.9238 C   0  0  0  0  0  0  0  0  0  0  0  0
   38.9782   35.4912   27.1060 C   0  0  2  0  0  0  0  0  0  0  0  0
   39.5137   36.7831   27.6853 C   0  0  1  0  0  0  0  0  0  0  0  0
   39.3310   37.0025   28.9955 C   0  0  0  0  0  0  0  0  0  0  0  0
   38.8327   35.4304   25.7086 O   0  0  0  0  0  0  0  0  0  0  0  0
   35.9332   34.5065   33.0379 N   0  0  0  0  0  0  0  0  0  0  0  0
   35.9995   34.9928   34.4830 N   0  0  0  0  0  0  0  0  0  0  0  0
   37.2016   33.7534   27.5015 O   0  0  0  0  0  0  0  0  0  0  0  0
   40.7254   37.1616   27.1701 O   0  0  0  0  0  0  0  0  0  0  0  0
  1  2  1  6
  1  3  1  0
  4  2  1  1
  1  5  1  0
  5  6  1  0
  6  7  1  1
  3  8  1  0
  7  8  1  0
  4  9  1  0
  5 10  1  0
  4 11  1  0
 10 11  1  0
 11 12  1  1
  9 13  1  0
 13 12  1  6
 13 14  1  0
 14 15  1  0
 15 16  1  0
  9 17  1  0
 16 17  1  0
 15 18  1  6
 10 19  2  0
  6 20  1  0
 19 20  1  0
 14 21  1  0
 16 22  1  1
M  END
$$$$
97
     RDKit          3D

 22 24  0  0  0  0  0  0  0  0999 V2000
   37.7914   37.3496   33.1079 N   0  0  0  0  0  0  0  0  0  0  0  0
   37.3197   36.2436   33.1024 C   0  0  2  0  0  0  0  0  0  0  0  0
   38.6881   37.6061   32.0925 C   0  0  2  0  0  0  0  0  0  0  0  0
   39.4228   38.7085   31.9217 N   0  0  0  0  0  0  0  0  0  0  0  0
   38.6762   36.7481   30.8880 C   0  0  0  0  0  0  0  0  0  0  0  0
   39.5943   39.7047   32.9058 C   0  0  0  0  0  0  0  0  0  0  0  0
   39.4268   37.0164   29.8340 N   0  0  0  0  0  0  0  0  0  0  0  0
   37.1648   35.2932   32.0171 N   0  0  0  0  0  0  0  0  0  0  0  0
   39.7349   39.0207   30.6157 C   0  0  1  0  0  0  0  0  0  0  0  0
   36.3913   34.1195   32.0663 C   0  0  0  0  0  0  0  0  0  0  0  0
   40.3443   40.3938   30.4523 O   0  0  0  0  0  0  0  0  0  0  0  0
   37.8032   35.6376   30.9580 C   0  0  2  0  0  0  0  0  0  0  0  0
   37.6373   34.6783   29.9639 N   0  0  0  0  0  0  0  0  0  0  0  0
   36.5187   36.0500   34.4563 N   0  0  0  0  0  0  0  0  0  0  0  0
   39.5146   41.3737   30.4863 C   0  0  0  0  0  0  0  0  0  0  0  0
   36.6646   33.8285   30.6107 C   0  0  0  0  0  0  0  0  0  0  0  0
   39.8947   38.0559   29.6941 C   0  0  0  0  0  0  0  0  0  0  0  0
   35.5317   33.6295   32.8186 C   0  0  0  0  0  0  0  0  0  0  0  0
   40.7194   38.4716   28.4175 O   0  0  0  0  0  0  0  0  0  0  0  0
   39.9779   38.4120   27.2300 C   0  0  0  0  0  0  0  0  0  0  0  0
   40.0141   42.5713   30.8392 O   0  0  0  0  0  0  0  0  0  0  0  0
   38.2463   41.5943   30.1188 O   0  0  0  0  0  0  0  0  0  0  0  0
  1  2  1  0
  3  1  1  6
  3  4  1  0
  3  5  1  0
  4  6  1  0
  5  7  1  0
  2  8  1  0
  4  9  1  0
  8 10  1  0
  9 11  1  1
  5 12  1  0
  8 12  1  0
 12 13  1  1
  2 14  1  6
 11 15  1  0
 10 16  1  0
 13 16  1  0
  7 17  1  0
  9 17  1  0
 10 18  2  0
 17 19  1  0
 19 20  1  0
 15 21  1  0
 15 22  2  0
M  END
$$$$
98
     RDKit          3D

 22 24  0  0  0  0  0  0  0  0999 V2000
   35.5728   33.2108   32.7078 O   0  0  0  0  0  0  0  0  0  0  0  0
   36.0852   34.3286   32.2571 C   0  0  0  0  0  0  0  0  0  0  0  0
   36.1909   35.4538   32.9209 N   0  0  0  0  0  0  0  0  0  0  0  0
   36.7297   34.2600   30.9021 C   0  0  2  0  0  0  0  0  0  0  0  0
   35.8007   35.5124   34.2546 C   0  0  0  0  0  0  0  0  0  0  0  0
   37.2812   36.2446   32.3544 C   0  0  0  0  0  0  0  0  0  0  0  0
   37.6548   37.3347   33.0244 O   0  0  0  0  0  0  0  0  0  0  0  0
   37.8974   36.0589   31.1364 N   0  0  0  0  0  0  0  0  0  0  0  0
   36.3518   33.0232   30.0956 N   0  0  0  0  0  0  0  0  0  0  0  0
   37.5859   35.0619   30.4171 C   0  0  0  0  0  0  0  0  0  0  0  0
   38.0579   34.7488   29.1794 C   0  0  1  0  0  0  0  0  0  0  0  0
   36.9441   32.9636   28.9573 C   0  0  0  0  0  0  0  0  0  0  0  0
   39.1503   35.7321   28.6659 C   0  0  0  0  0  0  0  0  0  0  0  0
   37.8041   33.7116   28.4474 N   0  0  0  0  0  0  0  0  0  0  0  0
   40.3287   35.6949   28.9320 C   0  0  0  0  0  0  0  0  0  0  0  0
   38.7401   36.8172   27.8489 C   0  0  0  0  0  0  0  0  0  0  0  0
   41.3177   36.6703   28.4416 C   0  0  0  0  0  0  0  0  0  0  0  0
   39.6380   37.7445   27.3560 C   0  0  0  0  0  0  0  0  0  0  0  0
   40.9300   37.6411   27.6521 C   0  0  0  0  0  0  0  0  0  0  0  0
   39.0066   38.9259   26.3807 C   0  0  0  0  0  0  0  0  0  0  0  0
   38.3920   39.8989   27.1027 O   0  0  0  0  0  0  0  0  0  0  0  0
   39.0799   38.8875   25.3741 O   0  0  0  0  0  0  0  0  0  0  0  0
  1  2  2  0
  2  3  1  0
  2  4  1  0
  3  5  1  0
  3  6  1  0
  6  7  2  0
  6  8  1  0
  4  9  1  1
  4 10  1  0
  8 10  1  0
 10 11  1  0
  9 12  1  0
 11 13  1  1
 11 14  1  0
 12 14  1  0
 13 15  2  0
 13 16  1  0
 15 17  1  0
 16 18  1  0
 17 19  1  0
 18 19  1  0
 18 20  1  0
 20 21  1  0
 20 22  2  0
M  END
$$$$
99
     RDKit          3D

 22 26  0  0  0  0  0  0  0  0999 V2000
   35.6127   33.7004   32.8725 C   0  0  0  0  0  0  0  0  0  0  0  0
   36.4362   34.7897   33.1048 C   0  0  2  0  0  0  0  0  0  0  0  0
   36.5326   35.4407   34.2825 C   0  0  0  0  0  0  0  0  0  0  0  0
   35.5243   33.1469   31.5441 C   0  0  0  0  0  0  0  0  0  0  0  0
   37.2220   36.7188   34.3441 C   0  0  1  0  0  0  0  0  0  0  0  0
   36.2149   33.7054   30.4900 C   0  0  1  0  0  0  0  0  0  0  0  0
   37.1261   34.7874   30.7658 C   0  0  2  0  0  0  0  0  0  0  0  0
   37.5353   37.3577   35.5713 O   0  0  0  0  0  0  0  0  0  0  0  0
   38.1285   37.0071   33.2298 C   0  0  2  0  0  0  0  0  0  0  0  0
   38.8586   38.2450   33.2819 N   0  0  0  0  0  0  0  0  0  0  0  0
   39.7798   38.5975   32.4446 C   0  0  1  0  0  0  0  0  0  0  0  0
   37.2184   35.4321   31.9828 C   0  0  1  0  0  0  0  0  0  0  0  0
   37.8846   36.5284   32.0866 N   0  0  0  0  0  0  0  0  0  0  0  0
   37.8356   35.2575   29.6200 C   0  0  1  0  0  0  0  0  0  0  0  0
   38.7487   36.3603   29.7456 C   0  0  0  0  0  0  0  0  0  0  0  0
   37.8907   34.4939   28.4175 N   0  0  0  0  0  0  0  0  0  0  0  0
   37.1712   33.4293   28.2586 C   0  0  0  0  0  0  0  0  0  0  0  0
   38.6805   37.1057   31.0106 C   0  0  2  0  0  0  0  0  0  0  0  0
   39.5603   38.1003   31.1538 N   0  0  0  0  0  0  0  0  0  0  0  0
   36.4027   33.0031   29.2768 N   0  0  0  0  0  0  0  0  0  0  0  0
   37.2557   32.8030   27.0668 N   0  0  0  0  0  0  0  0  0  0  0  0
   40.4913   39.7933   32.5439 C   0  0  0  0  0  0  0  0  0  0  0  0
  2  1  1  6
  2  3  1  0
  1  4  1  0
  3  5  1  0
  6  4  1  1
  7  6  1  6
  5  8  1  1
  5  9  1  0
  9 10  1  6
 10 11  1  0
  2 12  1  0
  7 12  1  0
  9 13  1  0
 12 13  1  6
  7 14  1  0
 14 15  1  1
 14 16  1  0
 16 17  1  0
 13 18  1  0
 18 15  1  1
 11 19  1  0
 18 19  1  0
  6 20  1  0
 17 20  1  0
 17 21  1  0
 11 22  1  6
M  END
$$$$
