0
     RDKit          3D

  6  6  0  0  0  0  0  0  0  0999 V2000
   10.3227   -6.0921   13.5077 C   0  0  0  0  0  0  0  0  0  0  0  0
   10.2449   -4.8061   13.0042 C   0  0  0  0  0  0  0  0  0  0  0  0
   10.2957   -7.0184   12.4124 C   0  0  0  0  0  0  0  0  0  0  0  0
   10.2818   -4.4417   11.8621 C   0  0  0  0  0  0  0  0  0  0  0  0
   10.5298   -5.2762   10.8017 C   0  0  0  0  0  0  0  0  0  0  0  0
   10.5817   -6.4320   11.0815 C   0  0  0  0  0  0  0  0  0  0  0  0
  1  2  1  0
  1  3  1  0
  2  4  1  0
  4  5  1  0
  3  6  1  0
  5  6  1  0
M  END
$$$$
1
     RDKit          3D

  8  8  0  0  0  0  0  0  0  0999 V2000
    8.9814   -6.8682    4.2404 C   0  0  0  0  0  0  0  0  0  0  0  0
    9.4361   -5.7698    4.6866 C   0  0  0  0  0  0  0  0  0  0  0  0
    8.8423   -5.1100    5.8401 C   0  0  0  0  0  0  0  0  0  0  0  0
    9.5635   -7.3135    2.8595 C   0  0  0  0  0  0  0  0  0  0  0  0
   10.7916   -5.2236    4.3397 C   0  0  0  0  0  0  0  0  0  0  0  0
   11.2884   -5.7374    3.0609 C   0  0  0  0  0  0  0  0  0  0  0  0
   10.7623   -6.7926    2.4407 C   0  0  0  0  0  0  0  0  0  0  0  0
    7.7807   -5.4041    6.2571 C   0  0  0  0  0  0  0  0  0  0  0  0
  1  2  1  0
  2  3  1  0
  1  4  1  0
  2  5  1  0
  5  6  1  0
  4  7  1  0
  6  7  1  0
  3  8  2  0
M  END
$$$$
10
     RDKit          3D

 11 11  0  0  0  0  0  0  0  0999 V2000
   14.9280   -4.1139   13.3678 C   0  0  0  0  0  0  0  0  0  0  0  0
   14.0086   -3.2983   12.9215 C   0  0  0  0  0  0  0  0  0  0  0  0
   14.7943   -5.3870   12.9383 C   0  0  0  0  0  0  0  0  0  0  0  0
   13.9710   -5.7685   12.0860 C   0  0  0  0  0  0  0  0  0  0  0  0
   12.9872   -4.9599   11.6379 C   0  0  0  0  0  0  0  0  0  0  0  0
   11.9839   -5.3649   10.6915 O   0  0  0  0  0  0  0  0  0  0  0  0
   13.0084   -3.6513   12.0196 C   0  0  0  0  0  0  0  0  0  0  0  0
   10.6599   -4.9936   11.1374 C   0  0  0  0  0  0  0  0  0  0  0  0
   10.2326   -5.3961   12.3036 C   0  0  0  0  0  0  0  0  0  0  0  0
    9.1750   -4.5676   12.8674 F   0  0  0  0  0  0  0  0  0  0  0  0
   10.4540   -6.4066   13.0407 F   0  0  0  0  0  0  0  0  0  0  0  0
  1  2  1  0
  1  3  1  0
  3  4  1  0
  4  5  1  0
  5  6  1  0
  2  7  1  0
  5  7  1  0
  6  8  1  0
  8  9  1  0
  9 10  1  0
  9 11  1  0
M  END
$$$$
100
     RDKit          3D

 22 22  0  0  0  0  0  0  0  0999 V2000
   14.9280   -4.1139   13.3678 C   0  0  0  0  0  0  0  0  0  0  0  0
   14.0086   -3.2983   12.9215 C   0  0  0  0  0  0  0  0  0  0  0  0
   14.7943   -5.3870   12.9383 C   0  0  0  0  0  0  0  0  0  0  0  0
   13.9710   -5.7685   12.0860 C   0  0  0  0  0  0  0  0  0  0  0  0
   12.9872   -4.9599   11.6379 C   0  0  2  0  0  0  0  0  0  0  0  0
   11.9839   -5.3649   10.6915 O   0  0  0  0  0  0  0  0  0  0  0  0
   13.0084   -3.6513   12.0196 C   0  0  1  0  0  0  0  0  0  0  0  0
   11.8510   -2.8764   11.4497 C   0  0  0  0  0  0  0  0  0  0  0  0
   11.0009   -5.8832   11.4419 C   0  0  0  0  0  0  0  0  0  0  0  0
   11.6873   -2.8322   10.1627 O   0  0  0  0  0  0  0  0  0  0  0  0
   10.9410   -7.2004   11.8613 C   0  0  0  0  0  0  0  0  0  0  0  0
   12.2749   -1.5733    9.6878 C   0  0  0  0  0  0  0  0  0  0  0  0
   11.3724   -0.9207    9.0049 F   0  0  0  0  0  0  0  0  0  0  0  0
   10.8758   -8.1016   10.8421 C   0  0  0  0  0  0  0  0  0  0  0  0
   13.3668   -1.7905    9.2392 F   0  0  0  0  0  0  0  0  0  0  0  0
   10.0055   -5.0815   12.1218 O   0  0  0  0  0  0  0  0  0  0  0  0
   12.8461   -0.6034   10.6252 F   0  0  0  0  0  0  0  0  0  0  0  0
   11.1785   -9.5414   11.2308 C   0  0  0  0  0  0  0  0  0  0  0  0
   12.0898  -10.1732   10.2447 C   0  0  0  0  0  0  0  0  0  0  0  0
   13.0376  -11.2493   10.9540 C   0  0  0  0  0  0  0  0  0  0  0  0
   14.3130  -10.4295   11.5920 C   0  0  0  0  0  0  0  0  0  0  0  0
   14.8687   -9.5612   10.8509 C   0  0  0  0  0  0  0  0  0  0  0  0
  1  2  1  0
  1  3  1  0
  3  4  1  0
  4  5  1  0
  5  6  1  6
  2  7  1  0
  5  7  1  0
  7  8  1  1
  6  9  1  0
  8 10  1  0
  9 11  1  0
 10 12  1  0
 12 13  1  0
 11 14  1  0
 12 15  1  0
  9 16  2  0
 12 17  1  0
 14 18  1  0
 18 19  1  0
 19 20  1  0
 20 21  1  0
 21 22  1  0
M  END
$$$$
11
     RDKit          3D

 12 13  0  0  0  0  0  0  0  0999 V2000
   14.8531  -10.3005   11.7207 C   0  0  0  0  0  0  0  0  0  0  0  0
   13.5227  -10.5713   11.7004 C   0  0  2  0  0  0  0  0  0  0  0  0
   15.2112   -8.9379   11.4204 C   0  0  0  0  0  0  0  0  0  0  0  0
   12.9885  -11.8321   11.6693 C   0  0  0  0  0  0  0  0  0  0  0  0
   11.7104  -12.1463   11.1372 C   0  0  0  0  0  0  0  0  0  0  0  0
   12.5079   -9.5871   11.1536 C   0  0  0  0  0  0  0  0  0  0  0  0
   11.2511   -9.8559   10.8302 C   0  0  0  0  0  0  0  0  0  0  0  0
   14.3306   -7.9259   11.1088 C   0  0  0  0  0  0  0  0  0  0  0  0
   12.9794   -8.2141   11.0297 C   0  0  0  0  0  0  0  0  0  0  0  0
   10.7874  -11.1194   10.8181 C   0  0  1  0  0  0  0  0  0  0  0  0
    9.3766  -11.4136   10.2975 C   0  0  0  0  0  0  0  0  0  0  0  0
    8.5414  -10.3189   10.2807 C   0  0  0  0  0  0  0  0  0  0  0  0
  2  1  1  6
  1  3  1  0
  2  4  1  0
  4  5  1  0
  2  6  1  0
  6  7  1  0
  3  8  1  0
  6  9  1  0
  8  9  1  0
  5 10  1  0
  7 10  1  0
 10 11  1  6
 11 12  1  0
M  END
$$$$
12
     RDKit          3D

 12 13  0  0  0  0  0  0  0  0999 V2000
   10.4951   -5.3695    3.7330 C   0  0  2  0  0  0  0  0  0  0  0  0
    9.9191   -4.9512    4.6839 C   0  0  1  0  0  0  0  0  0  0  0  0
    9.1260   -5.6165    5.6197 C   0  0  0  0  0  0  0  0  0  0  0  0
   11.2021   -4.6630    2.7031 C   0  0  0  0  0  0  0  0  0  0  0  0
   10.3865   -3.5107    4.7818 C   0  0  2  0  0  0  0  0  0  0  0  0
   11.4698   -3.3689    3.0742 C   0  0  0  0  0  0  0  0  0  0  0  0
   10.1574   -6.9243    3.2915 C   0  0  0  0  0  0  0  0  0  0  0  0
    9.2491   -7.5387    4.2060 C   0  0  0  0  0  0  0  0  0  0  0  0
   11.0726   -2.8026    4.0966 C   0  0  0  0  0  0  0  0  0  0  0  0
    8.7080   -6.9052    5.3550 C   0  0  0  0  0  0  0  0  0  0  0  0
    9.8866   -2.9697    6.2587 C   0  0  0  0  0  0  0  0  0  0  0  0
    8.9611   -2.0481    6.3332 C   0  0  0  0  0  0  0  0  0  0  0  0
  1  2  1  0
  2  3  1  1
  1  4  1  6
  2  5  1  0
  4  6  1  0
  1  7  1  0
  7  8  1  0
  5  9  1  0
  6  9  1  0
  3 10  1  0
  8 10  1  0
  5 11  1  1
 11 12  2  0
M  END
$$$$
13
     RDKit          3D

 13 14  0  0  0  0  0  0  0  0999 V2000
   13.3447  -11.1179   11.7852 C   0  0  0  0  0  0  0  0  0  0  0  0
   12.1418  -11.2349   11.2508 C   0  0  0  0  0  0  0  0  0  0  0  0
   13.9224   -9.8846   11.9518 C   0  0  2  0  0  0  0  0  0  0  0  0
   13.2358   -8.7014   11.6341 C   0  0  1  0  0  0  0  0  0  0  0  0
   13.9231   -7.4428   11.7922 C   0  0  0  0  0  0  0  0  0  0  0  0
   11.9654   -8.8027   11.0051 C   0  0  0  0  0  0  0  0  0  0  0  0
   11.4604  -10.2348   10.7971 C   0  0  2  0  0  0  0  0  0  0  0  0
    9.9791  -10.3008   10.2733 C   0  0  0  0  0  0  0  0  0  0  0  0
    9.4352   -9.2730    9.7591 O   0  0  0  0  0  0  0  0  0  0  0  0
   15.0651   -7.3138   12.3531 C   0  0  0  0  0  0  0  0  0  0  0  0
   16.1399   -8.3718   12.5630 C   0  0  0  0  0  0  0  0  0  0  0  0
   15.4479   -9.7354   12.0219 C   0  0  0  0  0  0  0  0  0  0  0  0
    9.4755  -11.4415   10.0397 O   0  0  0  0  0  0  0  0  0  0  0  0
  1  2  1  0
  3  1  1  6
  3  4  1  0
  4  5  1  0
  4  6  1  6
  2  7  1  0
  6  7  1  0
  7  8  1  1
  8  9  1  0
  5 10  2  0
 10 11  1  0
  3 12  1  0
 11 12  1  0
  8 13  2  0
M  END
$$$$
14
     RDKit          3D

 13 14  0  0  0  0  0  0  0  0999 V2000
   13.3447  -11.1179   11.7852 C   0  0  0  0  0  0  0  0  0  0  0  0
   13.6693   -9.8967   11.8978 C   0  0  0  0  0  0  0  0  0  0  0  0
   12.7206   -8.8984   11.6799 C   0  0  0  0  0  0  0  0  0  0  0  0
   11.9773  -11.4314   11.1596 C   0  0  0  0  0  0  0  0  0  0  0  0
   11.2292  -10.4416   10.8824 C   0  0  0  0  0  0  0  0  0  0  0  0
   11.4353   -9.1639   11.0950 C   0  0  0  0  0  0  0  0  0  0  0  0
   13.0703   -7.5213   11.7714 C   0  0  1  0  0  0  0  0  0  0  0  0
   12.5260   -6.5690   12.3958 N   0  0  0  0  0  0  0  0  0  0  0  0
   12.8715   -5.3191   12.5962 C   0  0  0  0  0  0  0  0  0  0  0  0
   14.5266   -7.2264   11.5031 C   0  0  0  0  0  0  0  0  0  0  0  0
   15.0455   -5.9571   11.7463 C   0  0  0  0  0  0  0  0  0  0  0  0
   14.2217   -5.0457   12.4039 C   0  0  1  0  0  0  0  0  0  0  0  0
   14.8519   -3.7423   12.6862 O   0  0  0  0  0  0  0  0  0  0  0  0
  1  2  1  0
  2  3  1  0
  1  4  1  0
  4  5  1  0
  3  6  1  0
  5  6  1  0
  7  3  1  1
  7  8  1  0
  8  9  1  0
  7 10  1  0
 10 11  1  0
  9 12  1  0
 11 12  1  0
 12 13  1  6
M  END
$$$$
15
     RDKit          3D

 13 15  0  0  0  0  0  0  0  0999 V2000
    9.1197   -7.7599    3.6794 C   0  0  0  0  0  0  0  0  0  0  0  0
    9.8472   -7.9621    2.7115 C   0  0  0  0  0  0  0  0  0  0  0  0
   10.4035   -7.0202    2.0292 C   0  0  0  0  0  0  0  0  0  0  0  0
    9.3505   -6.4862    4.3364 C   0  0  2  0  0  0  0  0  0  0  0  0
    8.6654   -6.0412    5.6098 C   0  0  0  0  0  0  0  0  0  0  0  0
    9.9661   -5.4375    3.4604 C   0  0  2  0  0  0  0  0  0  0  0  0
   10.5333   -5.7594    2.4305 C   0  0  0  0  0  0  0  0  0  0  0  0
   10.0896   -3.9493    4.1085 C   0  0  2  0  0  0  0  0  0  0  0  0
   10.8512   -3.0747    3.5296 O   0  0  0  0  0  0  0  0  0  0  0  0
    8.7644   -4.7378    6.0550 C   0  0  0  0  0  0  0  0  0  0  0  0
   11.1264   -1.9988    4.2961 C   0  0  0  0  0  0  0  0  0  0  0  0
    9.4959   -3.5616    5.3050 C   0  0  1  0  0  0  0  0  0  0  0  0
    9.8906   -2.2921    5.6487 C   0  0  0  0  0  0  0  0  0  0  0  0
  1  2  1  0
  2  3  1  0
  4  1  1  6
  4  5  1  0
  4  6  1  0
  3  7  1  0
  6  7  1  1
  6  8  1  0
  8  9  1  1
  5 10  1  0
  9 11  1  0
  8 12  1  0
 12 10  1  1
 11 13  1  0
 12 13  1  0
M  END
$$$$
16
     RDKit          3D

 13 14  0  0  0  0  0  0  0  0999 V2000
   13.3447  -11.1179   11.7852 C   0  0  0  0  0  0  0  0  0  0  0  0
   12.1418  -11.2349   11.2508 C   0  0  0  0  0  0  0  0  0  0  0  0
   13.9224   -9.8846   11.9518 C   0  0  2  0  0  0  0  0  0  0  0  0
   13.2358   -8.7014   11.6341 C   0  0  1  0  0  0  0  0  0  0  0  0
   13.9231   -7.4428   11.7922 C   0  0  0  0  0  0  0  0  0  0  0  0
   11.9654   -8.8027   11.0051 C   0  0  0  0  0  0  0  0  0  0  0  0
   11.4604  -10.2348   10.7971 C   0  0  2  0  0  0  0  0  0  0  0  0
    9.9791  -10.3008   10.2733 C   0  0  1  0  0  0  0  0  0  0  0  0
    9.4352   -9.2730    9.7591 O   0  0  0  0  0  0  0  0  0  0  0  0
   15.0651   -7.3138   12.3531 C   0  0  0  0  0  0  0  0  0  0  0  0
   16.1399   -8.3718   12.5630 C   0  0  0  0  0  0  0  0  0  0  0  0
   15.3786   -9.7566   12.1757 C   0  0  0  0  0  0  0  0  0  0  0  0
    9.7772  -11.3893    9.2957 C   0  0  0  0  0  0  0  0  0  0  0  0
  1  2  1  0
  3  1  1  6
  3  4  1  0
  4  5  1  0
  4  6  1  6
  7  2  1  1
  6  7  1  0
  7  8  1  0
  8  9  1  0
  5 10  2  0
 10 11  1  0
  3 12  1  0
 11 12  1  0
  8 13  1  6
M  END
$$$$
17
     RDKit          3D

 14 15  0  0  0  0  0  0  0  0999 V2000
   13.3447  -11.1179   11.7852 C   0  0  0  0  0  0  0  0  0  0  0  0
   13.6693   -9.8967   11.8978 C   0  0  0  0  0  0  0  0  0  0  0  0
   12.7206   -8.8984   11.6799 C   0  0  0  0  0  0  0  0  0  0  0  0
   11.9773  -11.4314   11.1596 C   0  0  0  0  0  0  0  0  0  0  0  0
   11.2292  -10.4416   10.8824 C   0  0  0  0  0  0  0  0  0  0  0  0
   11.4353   -9.1639   11.0950 C   0  0  0  0  0  0  0  0  0  0  0  0
   13.0703   -7.5213   11.7714 C   0  0  1  0  0  0  0  0  0  0  0  0
   12.5260   -6.5690   12.3958 N   0  0  0  0  0  0  0  0  0  0  0  0
   12.8715   -5.3191   12.5962 C   0  0  0  0  0  0  0  0  0  0  0  0
   14.5266   -7.2264   11.5031 C   0  0  0  0  0  0  0  0  0  0  0  0
   15.0455   -5.9571   11.7463 C   0  0  0  0  0  0  0  0  0  0  0  0
   14.1790   -5.0155   12.3276 C   0  0  0  0  0  0  0  0  0  0  0  0
   14.9511   -3.5830   12.6131 C   0  0  0  0  0  0  0  0  0  0  0  0
   14.4164   -2.8256   13.2201 O   0  0  0  0  0  0  0  0  0  0  0  0
  1  2  1  0
  2  3  1  0
  1  4  1  0
  4  5  1  0
  3  6  1  0
  5  6  1  0
  7  3  1  1
  7  8  1  0
  8  9  1  0
  7 10  1  0
 10 11  1  0
  9 12  1  0
 11 12  1  0
 12 13  1  0
 13 14  2  0
M  END
$$$$
18
     RDKit          3D

 14 14  0  0  0  0  0  0  0  0999 V2000
   15.3093   -7.4773   11.1702 C   0  0  0  0  0  0  0  0  0  0  0  0
   14.4758   -6.8275   11.8919 C   0  0  0  0  0  0  0  0  0  0  0  0
   15.5632   -8.7519   11.3912 C   0  0  0  0  0  0  0  0  0  0  0  0
   14.4758   -9.5490   11.8873 C   0  0  0  0  0  0  0  0  0  0  0  0
   14.3060   -5.3416   11.8787 C   0  0  0  0  0  0  0  0  0  0  0  0
   13.3210   -8.9467   12.2786 C   0  0  0  0  0  0  0  0  0  0  0  0
   13.4617   -7.5918   12.5280 C   0  0  0  0  0  0  0  0  0  0  0  0
   13.6352   -4.6853   12.5667 O   0  0  0  0  0  0  0  0  0  0  0  0
   15.1996   -4.7472   11.1103 O   0  0  0  0  0  0  0  0  0  0  0  0
   13.0650   -3.4613   12.2194 C   0  0  0  0  0  0  0  0  0  0  0  0
   11.6388   -3.5897   11.8336 C   0  0  0  0  0  0  0  0  0  0  0  0
   10.9052   -4.4146   12.5611 C   0  0  0  0  0  0  0  0  0  0  0  0
   10.4804   -5.6377   11.9290 C   0  0  0  0  0  0  0  0  0  0  0  0
    9.9409   -6.7084   12.6230 C   0  0  0  0  0  0  0  0  0  0  0  0
  1  2  1  0
  1  3  1  0
  3  4  1  0
  2  5  1  0
  4  6  1  0
  2  7  1  0
  6  7  1  0
  5  8  1  0
  5  9  2  0
  8 10  1  0
 10 11  1  0
 11 12  1  0
 12 13  1  0
 13 14  1  0
M  END
$$$$
19
     RDKit          3D

 14 14  0  0  0  0  0  0  0  0999 V2000
   10.4951   -5.3695    3.7330 C   0  0  1  0  0  0  0  0  0  0  0  0
   10.1081   -6.5734    3.5553 C   0  0  1  0  0  0  0  0  0  0  0  0
   10.4894   -7.3326    2.4073 C   0  0  1  0  0  0  0  0  0  0  0  0
    9.6180   -7.3858    4.7163 C   0  0  0  0  0  0  0  0  0  0  0  0
   10.2157   -8.6482    2.2308 F   0  0  0  0  0  0  0  0  0  0  0  0
   11.0621   -6.6452    1.4133 C   0  0  1  0  0  0  0  0  0  0  0  0
   11.3549   -7.2678    0.1678 F   0  0  0  0  0  0  0  0  0  0  0  0
   11.2982   -5.2661    1.3817 C   0  0  0  0  0  0  0  0  0  0  0  0
   10.9757   -4.7065    2.6909 C   0  0  0  0  0  0  0  0  0  0  0  0
   10.0955   -4.7066    5.0331 C   0  0  0  0  0  0  0  0  0  0  0  0
   10.5011   -3.2966    5.2220 C   0  0  0  0  0  0  0  0  0  0  0  0
   10.0061   -2.5621    6.2395 C   0  0  0  0  0  0  0  0  0  0  0  0
   10.4053   -1.3610    6.5350 O   0  0  0  0  0  0  0  0  0  0  0  0
    8.8668   -3.0817    6.9150 O   0  0  0  0  0  0  0  0  0  0  0  0
  1  2  1  0
  2  3  1  0
  2  4  1  1
  3  5  1  6
  3  6  1  0
  6  7  1  6
  6  8  1  0
  1  9  1  0
  8  9  1  0
  1 10  1  6
 10 11  1  0
 11 12  1  0
 12 13  2  0
 12 14  1  0
M  END
$$$$
2
     RDKit          3D

  8  8  0  0  0  0  0  0  0  0999 V2000
   10.4674   -7.7804    2.9846 C   0  0  0  0  0  0  0  0  0  0  0  0
   10.6420   -6.8021    2.2153 C   0  0  0  0  0  0  0  0  0  0  0  0
   11.0077   -6.8551    0.9108 C   0  0  0  0  0  0  0  0  0  0  0  0
    9.7184   -7.6008    4.2432 C   0  0  0  0  0  0  0  0  0  0  0  0
   10.0401   -5.5165    2.8112 C   0  0  0  0  0  0  0  0  0  0  0  0
    9.3615   -6.3595    4.5499 C   0  0  0  0  0  0  0  0  0  0  0  0
    9.6255   -5.2873    3.9183 C   0  0  0  0  0  0  0  0  0  0  0  0
   11.0929   -8.0883    0.3084 C   0  0  0  0  0  0  0  0  0  0  0  0
  1  2  1  0
  2  3  1  0
  1  4  1  0
  2  5  1  0
  4  6  1  0
  5  7  1  0
  6  7  1  0
  3  8  1  0
M  END
$$$$
20
     RDKit          3D

 15 15  0  0  0  0  0  0  0  0999 V2000
   15.3093   -7.4773   11.1702 C   0  0  0  0  0  0  0  0  0  0  0  0
   14.9064   -8.6691   11.1726 C   0  0  2  0  0  0  0  0  0  0  0  0
   14.7121   -6.5628   11.9729 C   0  0  1  0  0  0  0  0  0  0  0  0
   15.3142   -5.1406   12.1346 O   0  0  0  0  0  0  0  0  0  0  0  0
   13.3279   -6.6253   11.9375 C   0  0  0  0  0  0  0  0  0  0  0  0
   15.7609   -9.8135   10.5034 C   0  0  0  0  0  0  0  0  0  0  0  0
   15.1810   -4.7247   13.4310 C   0  0  0  0  0  0  0  0  0  0  0  0
   13.4745   -8.8770   11.0880 C   0  0  1  0  0  0  0  0  0  0  0  0
   12.9341  -10.2875   10.9313 C   0  0  0  0  0  0  0  0  0  0  0  0
   12.6759   -7.8741   11.6940 C   0  0  0  0  0  0  0  0  0  0  0  0
   14.0771   -3.6898   13.5555 C   0  0  0  0  0  0  0  0  0  0  0  0
   14.3887   -2.4911   12.7382 O   0  0  0  0  0  0  0  0  0  0  0  0
   11.7224  -10.4154   10.3968 C   0  0  0  0  0  0  0  0  0  0  0  0
   11.0052  -11.5701   10.7599 C   0  0  0  0  0  0  0  0  0  0  0  0
    9.9442  -11.9335    9.8503 C   0  0  0  0  0  0  0  0  0  0  0  0
  1  2  1  0
  1  3  1  0
  3  4  1  6
  3  5  1  0
  2  6  1  6
  4  7  1  0
  2  8  1  0
  8  9  1  1
  5 10  1  0
  8 10  1  0
  7 11  1  0
 11 12  1  0
  9 13  1  0
 13 14  1  0
 14 15  1  0
M  END
$$$$
21
     RDKit          3D

 15 16  0  0  0  0  0  0  0  0999 V2000
   10.4674   -7.7804    2.9846 C   0  0  0  0  0  0  0  0  0  0  0  0
   10.6420   -6.8021    2.2153 C   0  0  2  0  0  0  0  0  0  0  0  0
   11.0077   -6.8551    0.9108 C   0  0  0  0  0  0  0  0  0  0  0  0
   11.2798   -8.1890    0.4752 C   0  0  2  0  0  0  0  0  0  0  0  0
   10.4815   -5.4180    2.9584 C   0  0  0  0  0  0  0  0  0  0  0  0
   11.6729   -8.4037   -0.8583 O   0  0  0  0  0  0  0  0  0  0  0  0
    9.9514   -5.4436    4.2204 C   0  0  0  0  0  0  0  0  0  0  0  0
    9.7942   -4.2061    4.9602 C   0  0  0  0  0  0  0  0  0  0  0  0
   10.5445   -3.0808    4.5551 C   0  0  0  0  0  0  0  0  0  0  0  0
   10.8761   -9.3135    1.1499 C   0  0  0  0  0  0  0  0  0  0  0  0
    9.7208   -4.4138    6.4207 C   0  0  0  0  0  0  0  0  0  0  0  0
    9.6201   -3.2237    7.1255 C   0  0  0  0  0  0  0  0  0  0  0  0
   10.1916   -2.0454    6.7220 C   0  0  0  0  0  0  0  0  0  0  0  0
   10.5566   -1.9317    5.3474 C   0  0  0  0  0  0  0  0  0  0  0  0
   10.3507   -9.1202    2.3509 C   0  0  0  0  0  0  0  0  0  0  0  0
  1  2  1  0
  2  3  1  0
  3  4  1  0
  2  5  1  1
  4  6  1  6
  5  7  1  0
  7  8  1  0
  8  9  1  0
  4 10  1  0
  8 11  1  0
 11 12  1  0
 12 13  1  0
  9 14  1  0
 13 14  1  0
  1 15  1  0
 10 15  1  0
M  END
$$$$
22
     RDKit          3D

 15 16  0  0  0  0  0  0  0  0999 V2000
   10.4666   -7.3028    2.4819 C   0  0  0  0  0  0  0  0  0  0  0  0
    9.9461   -7.5592    3.6615 C   0  0  0  0  0  0  0  0  0  0  0  0
   10.7122   -8.2833    1.4814 C   0  0  0  0  0  0  0  0  0  0  0  0
    9.4642   -6.3859    4.4973 C   0  0  0  0  0  0  0  0  0  0  0  0
    9.9658   -5.1385    4.2140 C   0  0  0  0  0  0  0  0  0  0  0  0
   10.7722   -5.8446    2.1637 C   0  0  0  0  0  0  0  0  0  0  0  0
   10.6003   -4.8424    3.0220 C   0  0  0  0  0  0  0  0  0  0  0  0
    9.7449   -3.9828    5.1735 C   0  0  0  0  0  0  0  0  0  0  0  0
   10.3425   -2.8078    5.0889 C   0  0  0  0  0  0  0  0  0  0  0  0
    9.0424   -4.2518    6.4553 C   0  0  0  0  0  0  0  0  0  0  0  0
   11.8333   -8.2326    0.7574 O   0  0  0  0  0  0  0  0  0  0  0  0
   10.1249   -1.7725    6.0330 C   0  0  0  0  0  0  0  0  0  0  0  0
    8.8379   -3.2846    7.3562 C   0  0  0  0  0  0  0  0  0  0  0  0
    9.3928   -2.0059    7.1451 C   0  0  0  0  0  0  0  0  0  0  0  0
    9.8869   -9.2014    1.2001 O   0  0  0  0  0  0  0  0  0  0  0  0
  1  2  1  0
  1  3  1  0
  2  4  1  0
  4  5  1  0
  1  6  1  0
  5  7  1  0
  6  7  1  0
  5  8  1  0
  8  9  1  0
  8 10  1  0
  3 11  1  0
  9 12  1  0
 10 13  1  0
 12 14  1  0
 13 14  1  0
  3 15  2  0
M  END
$$$$
23
     RDKit          3D

 15 15  0  0  0  0  0  0  0  0999 V2000
   15.3093   -7.4773   11.1702 C   0  0  0  0  0  0  0  0  0  0  0  0
   14.9064   -8.6691   11.1726 C   0  0  0  0  0  0  0  0  0  0  0  0
   14.5799   -6.3993   11.7263 C   0  0  0  0  0  0  0  0  0  0  0  0
   13.7983   -8.9193   11.4777 C   0  0  1  0  0  0  0  0  0  0  0  0
   13.5058   -6.7123   11.9883 C   0  0  2  0  0  0  0  0  0  0  0  0
   12.8968   -7.9825   11.8534 C   0  0  0  0  0  0  0  0  0  0  0  0
   12.5319   -5.6011   12.3361 O   0  0  0  0  0  0  0  0  0  0  0  0
   13.1601  -10.5409   11.3411 C   0  0  0  0  0  0  0  0  0  0  0  0
   12.8707   -4.3498   12.3872 C   0  0  0  0  0  0  0  0  0  0  0  0
   11.9627  -10.6624   11.1613 C   0  0  0  0  0  0  0  0  0  0  0  0
   11.7501   -3.4510   11.9268 C   0  0  0  0  0  0  0  0  0  0  0  0
   10.4447   -3.8199   12.0757 C   0  0  0  0  0  0  0  0  0  0  0  0
   10.8811   -9.7984   10.7609 C   0  0  0  0  0  0  0  0  0  0  0  0
    9.4777  -10.2845   10.8264 C   0  0  0  0  0  0  0  0  0  0  0  0
    9.1035  -10.6364    9.4239 C   0  0  0  0  0  0  0  0  0  0  0  0
  1  2  1  0
  1  3  1  0
  2  4  1  0
  3  5  1  0
  4  6  1  0
  5  6  1  0
  5  7  1  6
  4  8  1  6
  7  9  1  0
  8 10  1  0
  9 11  1  0
 11 12  1  0
 10 13  1  0
 13 14  1  0
 14 15  1  0
M  END
$$$$
24
     RDKit          3D

 15 15  0  0  0  0  0  0  0  0999 V2000
   15.3488   -9.2018   10.6653 C   0  0  0  0  0  0  0  0  0  0  0  0
   14.1677   -9.7313   10.8434 C   0  0  0  0  0  0  0  0  0  0  0  0
   15.6852   -7.9593   11.1709 C   0  0  0  0  0  0  0  0  0  0  0  0
   13.0789   -8.9874   11.4644 C   0  0  2  0  0  0  0  0  0  0  0  0
   14.7690   -7.3138   11.8636 C   0  0  1  0  0  0  0  0  0  0  0  0
   15.0379   -5.9834   12.5016 C   0  0  0  0  0  0  0  0  0  0  0  0
   13.4766   -7.7801   11.9477 C   0  0  0  0  0  0  0  0  0  0  0  0
   11.6155   -9.7125   11.6320 C   0  0  0  0  0  0  0  0  0  0  0  0
   10.6257   -8.7775   11.2745 C   0  0  0  0  0  0  0  0  0  0  0  0
   16.1903   -5.7068   12.9599 O   0  0  0  0  0  0  0  0  0  0  0  0
   14.1893   -4.9399   12.4123 N   0  0  0  0  0  0  0  0  0  0  0  0
   14.4473   -3.6834   13.0704 C   0  0  0  0  0  0  0  0  0  0  0  0
    9.5254   -9.4790   10.5515 C   0  0  0  0  0  0  0  0  0  0  0  0
    9.7623  -10.8323   10.1696 C   0  0  0  0  0  0  0  0  0  0  0  0
    8.8939  -11.4747    9.2943 C   0  0  0  0  0  0  0  0  0  0  0  0
  1  2  1  0
  1  3  1  0
  2  4  1  0
  3  5  1  0
  5  6  1  6
  4  7  1  0
  5  7  1  0
  4  8  1  1
  8  9  1  0
  6 10  2  0
  6 11  1  0
 11 12  1  0
  9 13  1  0
 13 14  1  0
 14 15  1  0
M  END
$$$$
25
     RDKit          3D

 15 17  0  0  0  0  0  0  0  0999 V2000
   10.4951   -5.3695    3.7330 C   0  0  0  0  0  0  0  0  0  0  0  0
    9.9191   -4.9512    4.6839 C   0  0  2  0  0  0  0  0  0  0  0  0
   10.1346   -6.7286    3.2847 C   0  0  0  0  0  0  0  0  0  0  0  0
   10.2203   -3.5333    5.0880 C   0  0  0  0  0  0  0  0  0  0  0  0
    9.0702   -5.7956    5.4076 C   0  0  0  0  0  0  0  0  0  0  0  0
    9.3671   -7.3531    3.9785 C   0  0  0  0  0  0  0  0  0  0  0  0
    9.0351   -8.7755    3.4866 F   0  0  0  0  0  0  0  0  0  0  0  0
    8.4260   -5.1275    6.6795 C   0  0  0  0  0  0  0  0  0  0  0  0
    8.7187   -7.0264    5.1400 C   0  0  0  0  0  0  0  0  0  0  0  0
   11.1013   -2.7495    4.4433 C   0  0  0  0  0  0  0  0  0  0  0  0
   11.0133   -1.4101    4.2746 C   0  0  0  0  0  0  0  0  0  0  0  0
    8.7083   -3.7494    6.9305 C   0  0  0  0  0  0  0  0  0  0  0  0
    9.5838   -3.1480    6.2272 C   0  0  0  0  0  0  0  0  0  0  0  0
    9.7000   -1.6413    6.2982 C   0  0  0  0  0  0  0  0  0  0  0  0
   10.2670   -0.7978    5.3549 C   0  0  0  0  0  0  0  0  0  0  0  0
  2  1  1  1
  1  3  1  0
  2  4  1  0
  2  5  1  0
  3  6  1  0
  6  7  1  0
  5  8  1  0
  5  9  1  0
  6  9  1  0
  4 10  2  0
 10 11  1  0
  8 12  1  0
  4 13  1  0
 12 13  1  0
 13 14  2  0
 11 15  2  0
 14 15  1  0
M  END
$$$$
26
     RDKit          3D

 15 15  0  0  0  0  0  0  0  0999 V2000
   13.3447  -11.1179   11.7852 C   0  0  0  0  0  0  0  0  0  0  0  0
   13.6693   -9.8967   11.8978 C   0  0  0  0  0  0  0  0  0  0  0  0
   11.9866  -11.5484   11.2856 C   0  0  0  0  0  0  0  0  0  0  0  0
   11.5848  -12.9187   11.1276 C   0  0  0  0  0  0  0  0  0  0  0  0
   12.7352   -8.8764   11.5316 C   0  0  2  0  0  0  0  0  0  0  0  0
   11.0084  -10.5470   10.9850 C   0  0  1  0  0  0  0  0  0  0  0  0
   11.3680   -9.3762   11.0808 C   0  0  0  0  0  0  0  0  0  0  0  0
    9.7830  -11.1890   10.4318 C   0  0  0  0  0  0  0  0  0  0  0  0
    8.9682  -10.5371    9.7540 C   0  0  0  0  0  0  0  0  0  0  0  0
   13.0910   -7.6099   11.4407 O   0  0  0  0  0  0  0  0  0  0  0  0
   12.5584   -6.6859   12.0989 C   0  0  0  0  0  0  0  0  0  0  0  0
   12.5038   -5.3365   11.5002 C   0  0  0  0  0  0  0  0  0  0  0  0
   11.5055   -4.4069   11.7977 C   0  0  0  0  0  0  0  0  0  0  0  0
   10.3004   -4.7205   12.2547 C   0  0  0  0  0  0  0  0  0  0  0  0
    9.2695   -3.8820   12.5789 C   0  0  0  0  0  0  0  0  0  0  0  0
  1  2  1  0
  1  3  1  0
  3  4  1  0
  2  5  1  0
  3  6  1  0
  5  7  1  0
  6  7  1  0
  6  8  1  6
  8  9  2  0
  5 10  1  6
 10 11  1  0
 11 12  1  0
 12 13  1  0
 13 14  1  0
 14 15  1  0
M  END
$$$$
27
     RDKit          3D

 15 17  0  0  0  0  0  0  0  0999 V2000
   10.4951   -5.3695    3.7330 C   0  0  0  0  0  0  0  0  0  0  0  0
    9.9191   -4.9512    4.6839 C   0  0  2  0  0  0  0  0  0  0  0  0
   10.1346   -6.7286    3.2847 C   0  0  0  0  0  0  0  0  0  0  0  0
   10.2203   -3.5333    5.0880 C   0  0  0  0  0  0  0  0  0  0  0  0
    9.0702   -5.7956    5.4076 C   0  0  0  0  0  0  0  0  0  0  0  0
    9.3671   -7.3531    3.9785 C   0  0  0  0  0  0  0  0  0  0  0  0
    9.0351   -8.7755    3.4866 F   0  0  0  0  0  0  0  0  0  0  0  0
    8.4260   -5.1275    6.6795 C   0  0  0  0  0  0  0  0  0  0  0  0
    8.7187   -7.0264    5.1400 C   0  0  0  0  0  0  0  0  0  0  0  0
   11.1013   -2.7495    4.4433 C   0  0  0  0  0  0  0  0  0  0  0  0
   11.0133   -1.4101    4.2746 C   0  0  0  0  0  0  0  0  0  0  0  0
    8.7083   -3.7494    6.9305 C   0  0  0  0  0  0  0  0  0  0  0  0
    9.5838   -3.1480    6.2272 C   0  0  2  0  0  0  0  0  0  0  0  0
   10.3797   -0.6115    5.0642 C   0  0  0  0  0  0  0  0  0  0  0  0
    9.4823   -1.4673    6.1025 C   0  0  0  0  0  0  0  0  0  0  0  0
  2  1  1  1
  1  3  1  0
  2  4  1  0
  2  5  1  0
  3  6  1  0
  6  7  1  0
  5  8  1  0
  5  9  1  0
  6  9  1  0
  4 10  2  0
 10 11  1  0
  8 12  1  0
  4 13  1  0
 13 12  1  6
 11 14  1  0
 13 15  1  0
 14 15  1  0
M  END
$$$$
28
     RDKit          3D

 15 16  0  0  0  0  0  0  0  0999 V2000
   13.3447  -11.1179   11.7852 C   0  0  0  0  0  0  0  0  0  0  0  0
   13.6693   -9.8967   11.8978 C   0  0  2  0  0  0  0  0  0  0  0  0
   12.7206   -8.8984   11.6799 C   0  0  2  0  0  0  0  0  0  0  0  0
   11.9773  -11.4314   11.1596 C   0  0  0  0  0  0  0  0  0  0  0  0
   11.2292  -10.4416   10.8824 C   0  0  2  0  0  0  0  0  0  0  0  0
   11.4353   -9.1639   11.0950 C   0  0  0  0  0  0  0  0  0  0  0  0
   13.0649   -7.5037   11.8752 C   0  0  0  0  0  0  0  0  0  0  0  0
    9.7202  -10.9198   10.4092 C   0  0  0  0  0  0  0  0  0  0  0  0
    8.8544   -9.8216   10.2088 C   0  0  0  0  0  0  0  0  0  0  0  0
   14.4381   -7.0740   11.8136 C   0  0  1  0  0  0  0  0  0  0  0  0
   15.4884   -7.9684   11.4548 C   0  0  0  0  0  0  0  0  0  0  0  0
   15.1045   -9.4558   11.6195 C   0  0  0  0  0  0  0  0  0  0  0  0
   14.7306   -5.6905   11.9773 C   0  0  0  0  0  0  0  0  0  0  0  0
   14.1664   -4.9773   12.8576 C   0  0  0  0  0  0  0  0  0  0  0  0
   14.4313   -3.5780   12.8295 O   0  0  0  0  0  0  0  0  0  0  0  0
  2  1  1  6
  2  3  1  0
  1  4  1  0
  4  5  1  0
  3  6  1  6
  5  6  1  0
  3  7  1  0
  5  8  1  1
  8  9  1  0
  7 10  1  0
 10 11  1  0
  2 12  1  0
 11 12  1  0
 10 13  1  6
 13 14  1  0
 14 15  1  0
M  END
$$$$
29
     RDKit          3D

 15 16  0  0  0  0  0  0  0  0999 V2000
   13.3447  -11.1179   11.7852 C   0  0  0  0  0  0  0  0  0  0  0  0
   13.6693   -9.8967   11.8978 C   0  0  0  0  0  0  0  0  0  0  0  0
   12.7206   -8.8984   11.6799 C   0  0  0  0  0  0  0  0  0  0  0  0
   11.9773  -11.4314   11.1596 C   0  0  0  0  0  0  0  0  0  0  0  0
   11.2292  -10.4416   10.8824 C   0  0  0  0  0  0  0  0  0  0  0  0
   11.4353   -9.1639   11.0950 C   0  0  0  0  0  0  0  0  0  0  0  0
   13.0703   -7.5213   11.7714 C   0  0  1  0  0  0  0  0  0  0  0  0
   12.5260   -6.5690   12.3958 N   0  0  0  0  0  0  0  0  0  0  0  0
   12.8715   -5.3191   12.5962 C   0  0  2  0  0  0  0  0  0  0  0  0
   14.4447   -7.1530   11.4038 C   0  0  0  0  0  0  0  0  0  0  0  0
   15.0061   -5.9267   11.6707 C   0  0  0  0  0  0  0  0  0  0  0  0
   14.1459   -4.9992   12.2961 C   0  0  2  0  0  0  0  0  0  0  0  0
   11.9012   -4.2649   13.2578 C   0  0  0  0  0  0  0  0  0  0  0  0
   10.5945   -4.6713   13.1763 C   0  0  0  0  0  0  0  0  0  0  0  0
   14.9601   -3.5786   12.6837 C   0  0  0  0  0  0  0  0  0  0  0  0
  1  2  1  0
  2  3  1  0
  1  4  1  0
  4  5  1  0
  3  6  1  0
  5  6  1  0
  7  3  1  1
  7  8  1  0
  8  9  1  0
  7 10  1  0
 10 11  1  0
  9 12  1  0
 11 12  1  0
  9 13  1  1
 13 14  1  0
 12 15  1  1
M  END
$$$$
3
     RDKit          3D

  8  8  0  0  0  0  0  0  0  0999 V2000
   10.7400   -7.6412    2.5273 C   0  0  0  0  0  0  0  0  0  0  0  0
   10.8237   -6.4478    2.1203 C   0  0  0  0  0  0  0  0  0  0  0  0
   11.3958   -6.2583    0.8421 O   0  0  0  0  0  0  0  0  0  0  0  0
    9.7103   -7.8941    3.5410 C   0  0  0  0  0  0  0  0  0  0  0  0
    9.3971   -6.7839    4.2782 C   0  0  0  0  0  0  0  0  0  0  0  0
   10.4170   -5.2880    2.7958 C   0  0  0  0  0  0  0  0  0  0  0  0
   11.6329   -5.1511    0.3307 C   0  0  0  0  0  0  0  0  0  0  0  0
    9.7316   -5.5657    3.9635 C   0  0  0  0  0  0  0  0  0  0  0  0
  1  2  1  0
  2  3  1  0
  1  4  1  0
  4  5  1  0
  2  6  1  0
  3  7  1  0
  5  8  1  0
  6  8  1  0
M  END
$$$$
30
     RDKit          3D

 15 15  0  0  0  0  0  0  0  0999 V2000
   15.3093   -7.4773   11.1702 C   0  0  0  0  0  0  0  0  0  0  0  0
   14.9064   -8.6691   11.1726 C   0  0  2  0  0  0  0  0  0  0  0  0
   14.7121   -6.5628   11.9729 C   0  0  1  0  0  0  0  0  0  0  0  0
   15.3142   -5.1406   12.1346 O   0  0  0  0  0  0  0  0  0  0  0  0
   13.3279   -6.6253   11.9375 C   0  0  0  0  0  0  0  0  0  0  0  0
   15.7609   -9.8135   10.5034 C   0  0  0  0  0  0  0  0  0  0  0  0
   15.1810   -4.7247   13.4310 C   0  0  0  0  0  0  0  0  0  0  0  0
   13.4745   -8.8770   11.0880 C   0  0  1  0  0  0  0  0  0  0  0  0
   12.9341  -10.2875   10.9313 C   0  0  0  0  0  0  0  0  0  0  0  0
   12.6759   -7.8741   11.6940 C   0  0  0  0  0  0  0  0  0  0  0  0
   14.0771   -3.6898   13.5555 C   0  0  0  0  0  0  0  0  0  0  0  0
   14.3887   -2.4911   12.7382 O   0  0  0  0  0  0  0  0  0  0  0  0
   11.7224  -10.4154   10.3968 C   0  0  0  0  0  0  0  0  0  0  0  0
   11.2955   -9.7430    9.4183 O   0  0  0  0  0  0  0  0  0  0  0  0
   10.6596  -11.0217   11.2005 C   0  0  0  0  0  0  0  0  0  0  0  0
  1  2  1  0
  1  3  1  0
  3  4  1  6
  3  5  1  0
  2  6  1  6
  4  7  1  0
  2  8  1  0
  8  9  1  1
  5 10  1  0
  8 10  1  0
  7 11  1  0
 11 12  1  0
  9 13  1  0
 13 14  2  0
 13 15  1  0
M  END
$$$$
31
     RDKit          3D

 16 17  0  0  0  0  0  0  0  0999 V2000
   15.3488   -9.2018   10.6653 C   0  0  0  0  0  0  0  0  0  0  0  0
   14.1677   -9.7313   10.8434 C   0  0  0  0  0  0  0  0  0  0  0  0
   15.6852   -7.9593   11.1709 C   0  0  0  0  0  0  0  0  0  0  0  0
   13.0789   -8.9874   11.4644 C   0  0  2  0  0  0  0  0  0  0  0  0
   14.7690   -7.3138   11.8636 C   0  0  1  0  0  0  0  0  0  0  0  0
   15.0379   -5.9834   12.5016 C   0  0  0  0  0  0  0  0  0  0  0  0
   13.4766   -7.7801   11.9477 C   0  0  0  0  0  0  0  0  0  0  0  0
   11.6155   -9.7125   11.6320 C   0  0  0  0  0  0  0  0  0  0  0  0
   10.6257   -8.7775   11.2745 C   0  0  0  0  0  0  0  0  0  0  0  0
   16.1903   -5.7068   12.9599 O   0  0  0  0  0  0  0  0  0  0  0  0
   14.1893   -4.9399   12.4123 N   0  0  0  0  0  0  0  0  0  0  0  0
   14.4473   -3.6834   13.0704 C   0  0  0  0  0  0  0  0  0  0  0  0
    9.5254   -9.4790   10.5515 C   0  0  0  0  0  0  0  0  0  0  0  0
    9.7623  -10.8323   10.1696 C   0  0  0  0  0  0  0  0  0  0  0  0
   10.8220  -11.5216   10.5701 C   0  0  0  0  0  0  0  0  0  0  0  0
   12.0019  -10.9412   10.9804 C   0  0  0  0  0  0  0  0  0  0  0  0
  1  2  1  0
  1  3  1  0
  2  4  1  0
  3  5  1  0
  5  6  1  6
  4  7  1  0
  5  7  1  0
  4  8  1  1
  8  9  1  0
  6 10  2  0
  6 11  1  0
 11 12  1  0
  9 13  1  0
 13 14  1  0
 14 15  1  0
  8 16  1  0
 15 16  1  0
M  END
$$$$
32
     RDKit          3D

 16 17  0  0  0  0  0  0  0  0999 V2000
   10.4666   -7.3028    2.4819 C   0  0  1  0  0  0  0  0  0  0  0  0
    9.9461   -7.5592    3.6615 C   0  0  0  0  0  0  0  0  0  0  0  0
    9.6960   -6.5737    4.6246 C   0  0  0  0  0  0  0  0  0  0  0  0
   10.6698   -8.3019    1.5059 C   0  0  2  0  0  0  0  0  0  0  0  0
   10.6707   -5.8456    2.1807 C   0  0  2  0  0  0  0  0  0  0  0  0
   11.2532   -5.4445    0.9522 C   0  0  0  0  0  0  0  0  0  0  0  0
   10.3903   -4.7747    3.1677 C   0  0  0  0  0  0  0  0  0  0  0  0
    9.8638   -5.2433    4.3834 C   0  0  2  0  0  0  0  0  0  0  0  0
   10.3729   -9.5275    1.6490 O   0  0  0  0  0  0  0  0  0  0  0  0
   11.4182   -7.8840    0.2517 C   0  0  0  0  0  0  0  0  0  0  0  0
   11.5889   -6.5133    0.0355 C   0  0  0  0  0  0  0  0  0  0  0  0
    9.5343   -4.1544    5.4942 C   0  0  0  0  0  0  0  0  0  0  0  0
    9.9250   -2.9378    5.4579 C   0  0  0  0  0  0  0  0  0  0  0  0
    9.6506   -1.9448    6.4297 C   0  0  0  0  0  0  0  0  0  0  0  0
   10.0771   -0.7097    6.3474 C   0  0  0  0  0  0  0  0  0  0  0  0
   10.2298   -0.0350    5.1471 C   0  0  0  0  0  0  0  0  0  0  0  0
  1  2  1  6
  2  3  1  0
  1  4  1  0
  1  5  1  0
  5  6  1  1
  5  7  1  0
  3  8  1  0
  7  8  1  0
  4  9  1  1
  4 10  1  0
  6 11  1  0
 10 11  1  0
  8 12  1  1
 12 13  1  0
 13 14  1  0
 14 15  1  0
 15 16  1  0
M  END
$$$$
33
     RDKit          3D

 16 17  0  0  0  0  0  0  0  0999 V2000
   13.3447  -11.1179   11.7852 C   0  0  0  0  0  0  0  0  0  0  0  0
   13.6693   -9.8967   11.8978 C   0  0  0  0  0  0  0  0  0  0  0  0
   12.7206   -8.8984   11.6799 C   0  0  0  0  0  0  0  0  0  0  0  0
   11.9773  -11.4314   11.1596 C   0  0  0  0  0  0  0  0  0  0  0  0
   11.2292  -10.4416   10.8824 C   0  0  0  0  0  0  0  0  0  0  0  0
   11.4353   -9.1639   11.0950 C   0  0  0  0  0  0  0  0  0  0  0  0
   13.0703   -7.5213   11.7714 C   0  0  1  0  0  0  0  0  0  0  0  0
   12.5260   -6.5690   12.3958 N   0  0  0  0  0  0  0  0  0  0  0  0
   12.8715   -5.3191   12.5962 C   0  0  2  0  0  0  0  0  0  0  0  0
   14.4447   -7.1530   11.4038 C   0  0  0  0  0  0  0  0  0  0  0  0
   15.0061   -5.9267   11.6707 C   0  0  0  0  0  0  0  0  0  0  0  0
   14.1459   -4.9992   12.2961 C   0  0  0  0  0  0  0  0  0  0  0  0
   12.0616   -4.2983   13.2397 O   0  0  0  0  0  0  0  0  0  0  0  0
   14.7845   -3.6548   12.5905 O   0  0  0  0  0  0  0  0  0  0  0  0
   10.9658   -4.0272   12.4919 C   0  0  0  0  0  0  0  0  0  0  0  0
    9.8631   -4.6504   12.6316 C   0  0  0  0  0  0  0  0  0  0  0  0
  1  2  1  0
  2  3  1  0
  1  4  1  0
  4  5  1  0
  3  6  1  0
  5  6  1  0
  7  3  1  1
  7  8  1  0
  8  9  1  0
  7 10  1  0
 10 11  1  0
  9 12  1  0
 11 12  1  0
  9 13  1  1
 12 14  1  0
 13 15  1  0
 15 16  1  0
M  END
$$$$
34
     RDKit          3D

 16 16  0  0  0  0  0  0  0  0999 V2000
   10.3227   -6.0921   13.5077 C   0  0  0  0  0  0  0  0  0  0  0  0
   10.2449   -4.8061   13.0042 C   0  0  0  0  0  0  0  0  0  0  0  0
   10.9779   -6.9826   12.5834 C   0  0  0  0  0  0  0  0  0  0  0  0
   10.8124   -4.4699   11.9622 C   0  0  0  0  0  0  0  0  0  0  0  0
   10.7212   -3.0385   11.4640 C   0  0  0  0  0  0  0  0  0  0  0  0
   11.6649   -6.5859   11.5377 C   0  0  0  0  0  0  0  0  0  0  0  0
   11.5287   -5.2764   11.1713 C   0  0  0  0  0  0  0  0  0  0  0  0
   10.8948   -2.7630   10.1966 C   0  0  0  0  0  0  0  0  0  0  0  0
   10.4023   -3.7569    9.1897 C   0  0  0  0  0  0  0  0  0  0  0  0
   10.7866   -3.3582    7.8604 C   0  0  0  0  0  0  0  0  0  0  0  0
   10.0222   -3.8844    6.9028 C   0  0  0  0  0  0  0  0  0  0  0  0
   10.5652   -4.3001    5.5572 C   0  0  0  0  0  0  0  0  0  0  0  0
    9.8755   -5.3306    4.7388 C   0  0  0  0  0  0  0  0  0  0  0  0
   10.7289   -6.2777    4.1003 O   0  0  0  0  0  0  0  0  0  0  0  0
   10.0993   -6.9658    3.0112 C   0  0  0  0  0  0  0  0  0  0  0  0
    9.8784   -8.3290    3.4417 C   0  0  0  0  0  0  0  0  0  0  0  0
  1  2  1  0
  1  3  1  0
  2  4  1  0
  4  5  1  0
  3  6  1  0
  4  7  1  0
  6  7  1  0
  5  8  1  0
  8  9  1  0
  9 10  1  0
 10 11  1  0
 11 12  1  0
 12 13  1  0
 13 14  1  0
 14 15  1  0
 15 16  1  0
M  END
$$$$
35
     RDKit          3D

 16 16  0  0  0  0  0  0  0  0999 V2000
   15.3093   -7.4773   11.1702 C   0  0  0  0  0  0  0  0  0  0  0  0
   14.9064   -8.6691   11.1726 C   0  0  2  0  0  0  0  0  0  0  0  0
   14.7121   -6.5628   11.9729 C   0  0  1  0  0  0  0  0  0  0  0  0
   15.3142   -5.1406   12.1346 O   0  0  0  0  0  0  0  0  0  0  0  0
   13.3279   -6.6253   11.9375 C   0  0  0  0  0  0  0  0  0  0  0  0
   15.7609   -9.8135   10.5034 C   0  0  0  0  0  0  0  0  0  0  0  0
   15.1810   -4.7247   13.4310 C   0  0  0  0  0  0  0  0  0  0  0  0
   13.4745   -8.8770   11.0880 C   0  0  1  0  0  0  0  0  0  0  0  0
   12.9341  -10.2875   10.9313 C   0  0  0  0  0  0  0  0  0  0  0  0
   12.6759   -7.8741   11.6940 C   0  0  0  0  0  0  0  0  0  0  0  0
   14.0771   -3.6898   13.5555 C   0  0  0  0  0  0  0  0  0  0  0  0
   14.3887   -2.4911   12.7382 O   0  0  0  0  0  0  0  0  0  0  0  0
   11.7224  -10.4154   10.3968 C   0  0  0  0  0  0  0  0  0  0  0  0
   11.2955   -9.7430    9.4183 O   0  0  0  0  0  0  0  0  0  0  0  0
   10.9532  -11.5689   10.7133 C   0  0  0  0  0  0  0  0  0  0  0  0
    9.8110  -11.8197    9.8669 C   0  0  0  0  0  0  0  0  0  0  0  0
  1  2  1  0
  1  3  1  0
  3  4  1  6
  3  5  1  0
  2  6  1  6
  4  7  1  0
  2  8  1  0
  8  9  1  1
  5 10  1  0
  8 10  1  0
  7 11  1  0
 11 12  1  0
  9 13  1  0
 13 14  2  0
 13 15  1  0
 15 16  1  0
M  END
$$$$
36
     RDKit          3D

 16 18  0  0  0  0  0  0  0  0999 V2000
   13.3643   -1.3070   10.1055 C   0  0  0  0  0  0  0  0  0  0  0  0
   13.1510   -2.4233   10.7006 C   0  0  1  0  0  0  0  0  0  0  0  0
   13.8719   -2.7388   11.8721 C   0  0  0  0  0  0  0  0  0  0  0  0
   11.7508   -3.0216   10.7793 C   0  0  1  0  0  0  0  0  0  0  0  0
   13.5454   -3.8871   12.7069 C   0  0  0  0  0  0  0  0  0  0  0  0
   12.2166   -0.7867    9.3034 C   0  0  0  0  0  0  0  0  0  0  0  0
   14.4736   -4.1601   13.7142 O   0  0  0  0  0  0  0  0  0  0  0  0
   11.0094   -1.3171    9.2454 C   0  0  1  0  0  0  0  0  0  0  0  0
   10.0132   -0.7810    8.3666 C   0  0  0  0  0  0  0  0  0  0  0  0
   10.7748   -2.5318    9.8873 C   0  0  1  0  0  0  0  0  0  0  0  0
   11.5448   -4.2300   11.5416 C   0  0  0  0  0  0  0  0  0  0  0  0
    9.3210   -1.6971    7.5515 C   0  0  0  0  0  0  0  0  0  0  0  0
    8.9944   -3.0025    8.2072 C   0  0  0  0  0  0  0  0  0  0  0  0
    9.7385   -3.4037    9.3786 C   0  0  0  0  0  0  0  0  0  0  0  0
   12.4214   -4.5803   12.5118 C   0  0  0  0  0  0  0  0  0  0  0  0
   15.1588   -5.3116   13.4204 C   0  0  0  0  0  0  0  0  0  0  0  0
  2  1  1  1
  2  3  1  0
  2  4  1  0
  3  5  1  0
  1  6  1  0
  5  7  1  0
  8  6  1  6
  8  9  1  0
  4 10  1  0
  8 10  1  0
  4 11  1  6
  9 12  1  0
 12 13  1  0
 10 14  1  6
 13 14  1  0
  5 15  1  0
 11 15  1  0
  7 16  1  0
M  END
$$$$
37
     RDKit          3D

 16 17  0  0  0  0  0  0  0  0999 V2000
   14.8985   -3.1782   13.5970 C   0  0  0  0  0  0  0  0  0  0  0  0
   13.9016   -3.3356   12.8313 C   0  0  1  0  0  0  0  0  0  0  0  0
   13.8079   -2.9288   11.5716 C   0  0  0  0  0  0  0  0  0  0  0  0
   12.6689   -3.2307   10.6446 C   0  0  0  0  0  0  0  0  0  0  0  0
   12.8636   -4.4447   13.0281 C   0  0  0  0  0  0  0  0  0  0  0  0
   11.7316   -4.1214   10.9840 C   0  0  2  0  0  0  0  0  0  0  0  0
   10.6066   -4.3502   10.0994 C   0  0  0  0  0  0  0  0  0  0  0  0
   11.8431   -4.6940   12.2757 C   0  0  1  0  0  0  0  0  0  0  0  0
   15.7320   -3.9529   13.8878 O   0  0  0  0  0  0  0  0  0  0  0  0
   14.4006   -2.3327   14.6651 O   0  0  0  0  0  0  0  0  0  0  0  0
   10.6863   -5.6968   12.4686 C   0  0  0  0  0  0  0  0  0  0  0  0
    9.6999   -5.6944   11.7083 C   0  0  2  0  0  0  0  0  0  0  0  0
    8.6588   -6.6371   12.1608 O   0  0  0  0  0  0  0  0  0  0  0  0
   12.7146   -2.4082    9.2762 C   0  0  0  0  0  0  0  0  0  0  0  0
   12.8802   -1.1176    9.4007 O   0  0  0  0  0  0  0  0  0  0  0  0
    9.5900   -5.1423   10.5246 C   0  0  0  0  0  0  0  0  0  0  0  0
  2  1  1  6
  2  3  1  0
  3  4  1  0
  2  5  1  0
  4  6  1  0
  6  7  1  1
  8  5  1  6
  6  8  1  0
  1  9  1  0
  1 10  2  0
  8 11  1  0
 11 12  1  0
 12 13  1  6
  4 14  1  0
 14 15  1  0
  7 16  1  0
 12 16  1  0
M  END
$$$$
38
     RDKit          3D

 17 19  0  0  0  0  0  0  0  0999 V2000
   10.4674   -7.7804    2.9846 C   0  0  2  0  0  0  0  0  0  0  0  0
   10.6420   -6.8021    2.2153 C   0  0  2  0  0  0  0  0  0  0  0  0
   11.0077   -6.8551    0.9108 C   0  0  0  0  0  0  0  0  0  0  0  0
   11.2798   -8.1890    0.4752 C   0  0  2  0  0  0  0  0  0  0  0  0
   10.4815   -5.4180    2.9584 C   0  0  2  0  0  0  0  0  0  0  0  0
   11.6729   -8.4037   -0.8583 O   0  0  0  0  0  0  0  0  0  0  0  0
   10.7323   -9.2887    1.1525 C   0  0  0  0  0  0  0  0  0  0  0  0
   10.2218   -9.0464    2.4409 C   0  0  0  0  0  0  0  0  0  0  0  0
   11.0899   -4.3029    2.5409 C   0  0  0  0  0  0  0  0  0  0  0  0
   10.3285   -5.4877    4.4092 C   0  0  2  0  0  0  0  0  0  0  0  0
   11.0023   -3.1082    3.3365 C   0  0  0  0  0  0  0  0  0  0  0  0
    9.6695   -6.6879    4.9593 C   0  0  0  0  0  0  0  0  0  0  0  0
   10.2667   -4.3546    5.1343 C   0  0  0  0  0  0  0  0  0  0  0  0
    9.7001   -7.8003    4.2331 C   0  0  0  0  0  0  0  0  0  0  0  0
   10.7280   -3.2086    4.7115 C   0  0  2  0  0  0  0  0  0  0  0  0
   10.7390   -2.0955    5.6184 O   0  0  0  0  0  0  0  0  0  0  0  0
   10.0030   -0.9616    5.1112 C   0  0  0  0  0  0  0  0  0  0  0  0
  1  2  1  0
  2  3  1  1
  3  4  1  0
  2  5  1  0
  4  6  1  6
  4  7  1  0
  1  8  1  6
  7  8  1  0
  5  9  1  1
  5 10  1  0
  9 11  1  0
 10 12  1  6
 10 13  1  0
  1 14  1  0
 12 14  1  0
 11 15  1  0
 13 15  1  0
 15 16  1  6
 16 17  1  0
M  END
$$$$
39
     RDKit          3D

 17 19  0  0  0  0  0  0  0  0999 V2000
   13.6823   -9.6804    9.9810 C   0  0  0  0  0  0  0  0  0  0  0  0
   12.6851  -10.1838   10.7540 C   0  0  1  0  0  0  0  0  0  0  0  0
   14.8974   -9.2896   10.8178 C   0  0  0  0  0  0  0  0  0  0  0  0
   14.5641   -8.3549   11.8115 C   0  0  0  0  0  0  0  0  0  0  0  0
   15.6784   -7.8033   12.5979 C   0  0  0  0  0  0  0  0  0  0  0  0
   13.2663   -7.9650   11.9782 C   0  0  2  0  0  0  0  0  0  0  0  0
   12.2288   -8.9352   11.5551 C   0  0  0  0  0  0  0  0  0  0  0  0
   11.6594  -11.0673   10.3265 C   0  0  0  0  0  0  0  0  0  0  0  0
   10.4483  -11.0083   10.6349 C   0  0  0  0  0  0  0  0  0  0  0  0
   15.5966   -6.4263   12.9026 C   0  0  1  0  0  0  0  0  0  0  0  0
    9.4733  -11.9142   10.0762 C   0  0  0  0  0  0  0  0  0  0  0  0
   16.5681   -5.7928   13.4677 C   0  0  0  0  0  0  0  0  0  0  0  0
   14.3601   -5.8125   12.4316 C   0  0  2  0  0  0  0  0  0  0  0  0
   16.4440   -4.3681   13.5927 C   0  0  0  0  0  0  0  0  0  0  0  0
   15.2052   -3.8719   13.4435 C   0  0  0  0  0  0  0  0  0  0  0  0
   14.1779   -4.5375   12.7717 C   0  0  0  0  0  0  0  0  0  0  0  0
   13.1199   -6.6119   12.1598 C   0  0  0  0  0  0  0  0  0  0  0  0
  1  2  1  0
  1  3  1  0
  3  4  1  0
  4  5  1  0
  4  6  1  0
  2  7  1  0
  6  7  1  6
  2  8  1  6
  8  9  1  0
 10  5  1  6
  9 11  1  0
 10 12  1  0
 10 13  1  0
 12 14  1  0
 14 15  1  0
 13 16  1  1
 15 16  1  0
  6 17  1  0
 13 17  1  0
M  END
$$$$
4
     RDKit          3D

  9  9  0  0  0  0  0  0  0  0999 V2000
   13.6823   -9.6804    9.9810 C   0  0  0  0  0  0  0  0  0  0  0  0
   12.6851  -10.1838   10.7540 C   0  0  0  0  0  0  0  0  0  0  0  0
   12.3598   -9.5258   11.9737 C   0  0  0  0  0  0  0  0  0  0  0  0
   14.8666   -9.2456   10.6777 C   0  0  0  0  0  0  0  0  0  0  0  0
   13.4501   -8.7905   12.5879 C   0  0  0  0  0  0  0  0  0  0  0  0
   14.6592   -8.5930   11.9260 C   0  0  0  0  0  0  0  0  0  0  0  0
   11.3507  -10.6125    9.9286 C   0  0  0  0  0  0  0  0  0  0  0  0
   10.3922  -11.1559   10.6866 C   0  0  0  0  0  0  0  0  0  0  0  0
   10.3268  -12.6378   10.4180 C   0  0  0  0  0  0  0  0  0  0  0  0
  1  2  1  0
  2  3  1  0
  1  4  1  0
  3  5  1  0
  4  6  1  0
  5  6  1  0
  2  7  1  0
  7  8  1  0
  8  9  1  0
M  END
$$$$
40
     RDKit          3D

 17 19  0  0  0  0  0  0  0  0999 V2000
   10.4666   -7.3028    2.4819 C   0  0  1  0  0  0  0  0  0  0  0  0
    9.9461   -7.5592    3.6615 C   0  0  0  0  0  0  0  0  0  0  0  0
    9.6960   -6.5737    4.6246 C   0  0  0  0  0  0  0  0  0  0  0  0
   10.6698   -8.3019    1.5059 C   0  0  2  0  0  0  0  0  0  0  0  0
   10.6707   -5.8456    2.1807 C   0  0  2  0  0  0  0  0  0  0  0  0
   11.2532   -5.4445    0.9522 C   0  0  0  0  0  0  0  0  0  0  0  0
   10.3903   -4.7747    3.1677 C   0  0  0  0  0  0  0  0  0  0  0  0
    9.8638   -5.2433    4.3834 C   0  0  2  0  0  0  0  0  0  0  0  0
   10.3729   -9.5275    1.6490 O   0  0  0  0  0  0  0  0  0  0  0  0
   11.4182   -7.8840    0.2517 C   0  0  0  0  0  0  0  0  0  0  0  0
   11.5889   -6.5133    0.0355 C   0  0  0  0  0  0  0  0  0  0  0  0
    9.5343   -4.1544    5.4942 C   0  0  0  0  0  0  0  0  0  0  0  0
    9.9250   -2.9378    5.4579 C   0  0  0  0  0  0  0  0  0  0  0  0
    9.6506   -1.9448    6.4297 C   0  0  0  0  0  0  0  0  0  0  0  0
    9.4846   -2.4360    7.7240 C   0  0  0  0  0  0  0  0  0  0  0  0
    9.3116   -3.7478    8.0002 C   0  0  0  0  0  0  0  0  0  0  0  0
    9.4163   -4.6867    6.9022 C   0  0  0  0  0  0  0  0  0  0  0  0
  1  2  1  6
  2  3  1  0
  1  4  1  0
  1  5  1  0
  5  6  1  1
  5  7  1  0
  3  8  1  0
  7  8  1  0
  4  9  1  1
  4 10  1  0
  6 11  1  0
 10 11  1  0
  8 12  1  1
 12 13  1  0
 13 14  1  0
 14 15  1  0
 15 16  1  0
 12 17  1  0
 16 17  1  0
M  END
$$$$
41
     RDKit          3D

 17 18  0  0  0  0  0  0  0  0999 V2000
   10.4666   -7.3028    2.4819 C   0  0  0  0  0  0  0  0  0  0  0  0
    9.9461   -7.5592    3.6615 C   0  0  0  0  0  0  0  0  0  0  0  0
   10.7122   -8.2833    1.4814 C   0  0  0  0  0  0  0  0  0  0  0  0
    9.4642   -6.3859    4.4973 C   0  0  0  0  0  0  0  0  0  0  0  0
    9.9658   -5.1385    4.2140 C   0  0  0  0  0  0  0  0  0  0  0  0
   10.7722   -5.8446    2.1637 C   0  0  0  0  0  0  0  0  0  0  0  0
   10.6003   -4.8424    3.0220 C   0  0  0  0  0  0  0  0  0  0  0  0
    9.7449   -3.9828    5.1735 C   0  0  2  0  0  0  0  0  0  0  0  0
   10.3425   -2.8078    5.0889 C   0  0  0  0  0  0  0  0  0  0  0  0
    9.0424   -4.2518    6.4553 C   0  0  0  0  0  0  0  0  0  0  0  0
   11.8333   -8.2326    0.7574 O   0  0  0  0  0  0  0  0  0  0  0  0
   10.1249   -1.7725    6.0330 C   0  0  0  0  0  0  0  0  0  0  0  0
    8.8379   -3.2846    7.3562 C   0  0  0  0  0  0  0  0  0  0  0  0
   10.6528   -0.4739    5.8225 O   0  0  0  0  0  0  0  0  0  0  0  0
    9.8978   -9.2083    1.2001 O   0  0  0  0  0  0  0  0  0  0  0  0
   10.1757    0.1385    4.6950 C   0  0  0  0  0  0  0  0  0  0  0  0
    9.4060   -2.0273    7.1786 C   0  0  0  0  0  0  0  0  0  0  0  0
  1  2  1  0
  1  3  1  0
  2  4  1  0
  4  5  1  0
  1  6  1  0
  5  7  1  0
  6  7  1  0
  8  5  1  1
  8  9  1  0
  8 10  1  0
  3 11  1  0
  9 12  1  0
 10 13  1  0
 12 14  1  0
  3 15  2  0
 14 16  1  0
 12 17  1  0
 13 17  1  0
M  END
$$$$
42
     RDKit          3D

 17 18  0  0  0  0  0  0  0  0999 V2000
   15.3093   -7.4773   11.1702 C   0  0  0  0  0  0  0  0  0  0  0  0
   14.4758   -6.8275   11.8919 C   0  0  0  0  0  0  0  0  0  0  0  0
   15.5632   -8.7519   11.3912 C   0  0  0  0  0  0  0  0  0  0  0  0
   14.4758   -9.5490   11.8873 C   0  0  0  0  0  0  0  0  0  0  0  0
   14.3060   -5.3416   11.8787 C   0  0  0  0  0  0  0  0  0  0  0  0
   13.3210   -8.9467   12.2786 C   0  0  0  0  0  0  0  0  0  0  0  0
   13.4617   -7.5918   12.5280 C   0  0  0  0  0  0  0  0  0  0  0  0
   13.6352   -4.6853   12.5667 O   0  0  0  0  0  0  0  0  0  0  0  0
   15.1996   -4.7472   11.1103 O   0  0  0  0  0  0  0  0  0  0  0  0
   13.6110   -3.2256   12.5814 C   0  0  0  0  0  0  0  0  0  0  0  0
   12.5393   -2.7821   11.7055 C   0  0  1  0  0  0  0  0  0  0  0  0
   12.7919   -2.4225   10.4623 C   0  0  0  0  0  0  0  0  0  0  0  0
   13.7126   -1.6472   10.2125 O   0  0  0  0  0  0  0  0  0  0  0  0
   12.2082   -3.1266    9.3340 C   0  0  0  0  0  0  0  0  0  0  0  0
   10.9783   -3.8725    9.5926 C   0  0  0  0  0  0  0  0  0  0  0  0
   10.5462   -4.1377   10.8832 C   0  0  0  0  0  0  0  0  0  0  0  0
   11.3449   -3.7489   12.0128 C   0  0  0  0  0  0  0  0  0  0  0  0
  1  2  1  0
  1  3  1  0
  3  4  1  0
  2  5  1  0
  4  6  1  0
  2  7  1  0
  6  7  1  0
  5  8  1  0
  5  9  2  0
  8 10  1  0
 11 10  1  6
 11 12  1  0
 12 13  2  0
 12 14  1  0
 14 15  1  0
 15 16  1  0
 11 17  1  0
 16 17  1  0
M  END
$$$$
43
     RDKit          3D

 17 19  0  0  0  0  0  0  0  0999 V2000
   10.4951   -5.3695    3.7330 C   0  0  1  0  0  0  0  0  0  0  0  0
   10.1081   -6.5734    3.5553 C   0  0  1  0  0  0  0  0  0  0  0  0
   10.4894   -7.3326    2.4073 C   0  0  1  0  0  0  0  0  0  0  0  0
    9.6180   -7.3858    4.7163 C   0  0  0  0  0  0  0  0  0  0  0  0
   10.2157   -8.6482    2.2308 F   0  0  0  0  0  0  0  0  0  0  0  0
   11.0621   -6.6452    1.4133 C   0  0  1  0  0  0  0  0  0  0  0  0
   11.3549   -7.2678    0.1678 F   0  0  0  0  0  0  0  0  0  0  0  0
   11.2982   -5.2661    1.3817 C   0  0  0  0  0  0  0  0  0  0  0  0
   10.9757   -4.7065    2.6909 C   0  0  0  0  0  0  0  0  0  0  0  0
   10.0955   -4.7066    5.0331 C   0  0  2  0  0  0  0  0  0  0  0  0
    9.4272   -5.2843    5.9521 C   0  0  0  0  0  0  0  0  0  0  0  0
    9.1348   -6.6734    5.8708 C   0  0  0  0  0  0  0  0  0  0  0  0
   10.2229   -3.2484    5.1436 C   0  0  0  0  0  0  0  0  0  0  0  0
    8.9426   -4.6055    7.2076 C   0  0  2  0  0  0  0  0  0  0  0  0
    8.2881   -5.2648    8.1794 O   0  0  0  0  0  0  0  0  0  0  0  0
    9.8679   -2.6070    6.3109 C   0  0  0  0  0  0  0  0  0  0  0  0
    9.0248   -3.2286    7.3171 C   0  0  0  0  0  0  0  0  0  0  0  0
  1  2  1  0
  2  3  1  0
  2  4  1  1
  3  5  1  6
  3  6  1  0
  6  7  1  6
  6  8  1  0
  1  9  1  6
  8  9  1  0
  1 10  1  0
 10 11  1  0
  4 12  1  0
 11 12  1  0
 10 13  1  6
 11 14  1  0
 14 15  1  6
 13 16  1  0
 14 17  1  0
 16 17  1  0
M  END
$$$$
44
     RDKit          3D

 17 19  0  0  0  0  0  0  0  0999 V2000
   10.4674   -7.7804    2.9846 C   0  0  0  0  0  0  0  0  0  0  0  0
   10.6420   -6.8021    2.2153 C   0  0  2  0  0  0  0  0  0  0  0  0
   11.0077   -6.8551    0.9108 C   0  0  0  0  0  0  0  0  0  0  0  0
   11.2798   -8.1890    0.4752 C   0  0  2  0  0  0  0  0  0  0  0  0
   10.4815   -5.4180    2.9584 C   0  0  2  0  0  0  0  0  0  0  0  0
   11.6729   -8.4037   -0.8583 O   0  0  0  0  0  0  0  0  0  0  0  0
   10.7323   -9.2887    1.1525 C   0  0  0  0  0  0  0  0  0  0  0  0
   10.2218   -9.0464    2.4409 C   0  0  0  0  0  0  0  0  0  0  0  0
   11.0899   -4.3029    2.5409 C   0  0  0  0  0  0  0  0  0  0  0  0
   10.9778   -3.1066    3.3416 C   0  0  0  0  0  0  0  0  0  0  0  0
    9.6865   -5.4324    4.2277 C   0  0  0  0  0  0  0  0  0  0  0  0
    9.6521   -4.2580    5.0115 C   0  0  2  0  0  0  0  0  0  0  0  0
   10.3633   -3.0909    4.5778 C   0  0  2  0  0  0  0  0  0  0  0  0
   10.2884   -1.8998    5.4259 C   0  0  0  0  0  0  0  0  0  0  0  0
    9.8063   -1.9902    6.6840 C   0  0  0  0  0  0  0  0  0  0  0  0
    9.1939   -3.1682    7.1560 C   0  0  0  0  0  0  0  0  0  0  0  0
    9.2212   -4.2839    6.4108 C   0  0  0  0  0  0  0  0  0  0  0  0
  2  1  1  1
  2  3  1  0
  3  4  1  0
  2  5  1  0
  4  6  1  6
  4  7  1  0
  1  8  1  0
  7  8  1  0
  5  9  1  1
  9 10  1  0
  5 11  1  0
 12 11  1  1
 13 10  1  6
 12 13  1  0
 13 14  1  0
 14 15  1  0
 15 16  1  0
 12 17  1  0
 16 17  1  0
M  END
$$$$
45
     RDKit          3D

 17 18  0  0  0  0  0  0  0  0999 V2000
   10.4951   -5.3695    3.7330 C   0  0  2  0  0  0  0  0  0  0  0  0
    9.9191   -4.9512    4.6839 C   0  0  1  0  0  0  0  0  0  0  0  0
    9.1260   -5.6165    5.6197 C   0  0  0  0  0  0  0  0  0  0  0  0
   11.2021   -4.6630    2.7031 C   0  0  0  0  0  0  0  0  0  0  0  0
   10.3865   -3.5107    4.7818 C   0  0  0  0  0  0  0  0  0  0  0  0
   11.4698   -3.3689    3.0742 C   0  0  0  0  0  0  0  0  0  0  0  0
   10.1574   -6.9243    3.2915 C   0  0  0  0  0  0  0  0  0  0  0  0
    9.2491   -7.5387    4.2060 C   0  0  0  0  0  0  0  0  0  0  0  0
   11.0726   -2.8026    4.0966 C   0  0  0  0  0  0  0  0  0  0  0  0
    8.6499   -6.8630    5.3402 C   0  0  0  0  0  0  0  0  0  0  0  0
    9.8185   -2.8685    6.1772 C   0  0  0  0  0  0  0  0  0  0  0  0
   10.6585   -2.4525    7.2092 C   0  0  0  0  0  0  0  0  0  0  0  0
   10.3018   -2.7632    8.4724 C   0  0  0  0  0  0  0  0  0  0  0  0
   10.6486   -3.6722    9.1944 C   0  0  0  0  0  0  0  0  0  0  0  0
   10.2061   -3.7997   10.6572 C   0  0  0  0  0  0  0  0  0  0  0  0
   11.3328   -4.4427   11.5145 C   0  0  0  0  0  0  0  0  0  0  0  0
   11.0611   -4.5629   12.9324 C   0  0  0  0  0  0  0  0  0  0  0  0
  1  2  1  0
  2  3  1  1
  1  4  1  6
  2  5  1  0
  4  6  1  0
  1  7  1  0
  7  8  1  0
  5  9  1  0
  6  9  1  0
  3 10  1  0
  8 10  1  0
  5 11  1  0
 11 12  1  0
 12 13  1  0
 13 14  2  3
 14 15  1  0
 15 16  2  3
 16 17  1  0
M  END
$$$$
46
     RDKit          3D

 17 18  0  0  0  0  0  0  0  0999 V2000
   13.3643   -1.3070   10.1055 C   0  0  0  0  0  0  0  0  0  0  0  0
   13.1510   -2.4233   10.7006 C   0  0  0  0  0  0  0  0  0  0  0  0
   12.1656   -3.4017   10.5073 C   0  0  1  0  0  0  0  0  0  0  0  0
   11.1938   -3.0569    9.4693 C   0  0  2  0  0  0  0  0  0  0  0  0
   12.2969   -0.9729    9.1347 C   0  0  0  0  0  0  0  0  0  0  0  0
   12.3897    0.2803    8.4441 O   0  0  0  0  0  0  0  0  0  0  0  0
   11.2580   -1.7667    8.9031 C   0  0  1  0  0  0  0  0  0  0  0  0
   12.1382   -4.8092   11.2223 C   0  0  0  0  0  0  0  0  0  0  0  0
   10.1581   -1.3681    7.8229 C   0  0  0  0  0  0  0  0  0  0  0  0
    9.9387   -4.0972    9.4494 C   0  0  0  0  0  0  0  0  0  0  0  0
   13.2067   -5.1287   11.8553 C   0  0  0  0  0  0  0  0  0  0  0  0
   13.2223   -6.4158   12.3063 C   0  0  0  0  0  0  0  0  0  0  0  0
    9.4519   -2.3972    7.2585 C   0  0  0  0  0  0  0  0  0  0  0  0
   14.5563   -7.1495   12.1845 C   0  0  0  0  0  0  0  0  0  0  0  0
   14.5674   -8.5823   11.8301 C   0  0  0  0  0  0  0  0  0  0  0  0
    8.9505   -3.4819    8.3040 C   0  0  0  0  0  0  0  0  0  0  0  0
   15.6318   -9.1935   11.3378 C   0  0  0  0  0  0  0  0  0  0  0  0
  1  2  1  0
  2  3  1  0
  3  4  1  0
  1  5  1  0
  5  6  1  0
  4  7  1  0
  5  7  1  0
  3  8  1  6
  7  9  1  6
  4 10  1  1
  8 11  1  0
 11 12  1  0
  9 13  1  0
 12 14  1  0
 14 15  1  0
 10 16  1  0
 13 16  1  0
 15 17  1  0
M  END
$$$$
47
     RDKit          3D

 17 18  0  0  0  0  0  0  0  0999 V2000
   13.3643   -1.3070   10.1055 C   0  0  2  0  0  0  0  0  0  0  0  0
   13.1510   -2.4233   10.7006 C   0  0  0  0  0  0  0  0  0  0  0  0
   12.1656   -3.4017   10.5073 C   0  0  1  0  0  0  0  0  0  0  0  0
   14.3871   -0.4742   10.3315 O   0  0  0  0  0  0  0  0  0  0  0  0
   14.1221   -2.7813   11.7765 O   0  0  0  0  0  0  0  0  0  0  0  0
   12.0965   -4.6130   11.1063 C   0  0  0  0  0  0  0  0  0  0  0  0
   10.9946   -2.8390    9.9862 C   0  0  2  0  0  0  0  0  0  0  0  0
    9.8263   -3.6457    9.8256 C   0  0  2  0  0  0  0  0  0  0  0  0
    8.6339   -3.1651    9.3351 O   0  0  0  0  0  0  0  0  0  0  0  0
    8.4106   -3.5273    7.9270 C   0  0  0  0  0  0  0  0  0  0  0  0
   12.1538   -0.6149    9.5629 C   0  0  1  0  0  0  0  0  0  0  0  0
   12.1345    0.5809    9.0365 O   0  0  0  0  0  0  0  0  0  0  0  0
   11.0696   -1.6232    9.1710 C   0  0  0  0  0  0  0  0  0  0  0  0
    9.7480   -4.8910   10.3712 C   0  0  0  0  0  0  0  0  0  0  0  0
   10.9263   -5.2978   11.0969 C   0  0  0  0  0  0  0  0  0  0  0  0
    9.5414   -3.3820    7.0946 C   0  0  0  0  0  0  0  0  0  0  0  0
    9.7996   -2.0995    6.5437 O   0  0  0  0  0  0  0  0  0  0  0  0
  1  2  1  0
  2  3  1  0
  1  4  1  1
  2  5  1  0
  3  6  1  1
  3  7  1  0
  7  8  1  0
  8  9  1  1
  9 10  1  0
  1 11  1  0
 11 12  1  6
  7 13  1  6
 11 13  1  0
  8 14  1  0
  6 15  1  0
 14 15  1  0
 10 16  1  0
 16 17  1  0
M  END
$$$$
48
     RDKit          3D

 18 18  0  0  0  0  0  0  0  0999 V2000
   15.3488   -9.2018   10.6653 C   0  0  0  0  0  0  0  0  0  0  0  0
   14.1677   -9.7313   10.8434 C   0  0  0  0  0  0  0  0  0  0  0  0
   15.6817   -8.1749   11.4611 C   0  0  1  0  0  0  0  0  0  0  0  0
   13.1016   -9.0829   11.5419 C   0  0  2  0  0  0  0  0  0  0  0  0
   13.5009   -7.9655   12.2686 C   0  0  0  0  0  0  0  0  0  0  0  0
   17.0106   -7.5384   11.3959 O   0  0  0  0  0  0  0  0  0  0  0  0
   14.7516   -7.3829   12.0697 C   0  0  1  0  0  0  0  0  0  0  0  0
   15.2366   -6.1034   12.8509 C   0  0  0  0  0  0  0  0  0  0  0  0
   11.7690   -9.7227   11.6308 C   0  0  0  0  0  0  0  0  0  0  0  0
   11.1600   -9.9656   10.3274 C   0  0  0  0  0  0  0  0  0  0  0  0
    9.7396  -10.0795   10.4492 C   0  0  0  0  0  0  0  0  0  0  0  0
    9.1629  -11.0198    9.5399 C   0  0  0  0  0  0  0  0  0  0  0  0
   14.2507   -5.1236   12.9976 C   0  0  0  0  0  0  0  0  0  0  0  0
   13.8201   -4.2204   12.0277 C   0  0  0  0  0  0  0  0  0  0  0  0
   12.7414   -3.3447   11.9539 C   0  0  0  0  0  0  0  0  0  0  0  0
   11.4737   -4.0520   12.0521 C   0  0  0  0  0  0  0  0  0  0  0  0
   11.2253   -4.9821   12.8749 O   0  0  0  0  0  0  0  0  0  0  0  0
   10.3229   -3.7300   11.4377 O   0  0  0  0  0  0  0  0  0  0  0  0
  1  2  1  0
  1  3  1  0
  2  4  1  0
  4  5  1  0
  3  6  1  6
  3  7  1  0
  5  7  1  0
  7  8  1  1
  4  9  1  1
  9 10  1  0
 10 11  1  0
 11 12  2  0
  8 13  1  0
 13 14  2  3
 14 15  1  0
 15 16  1  0
 16 17  2  0
 16 18  1  0
M  END
$$$$
49
     RDKit          3D

 18 19  0  0  0  0  0  0  0  0999 V2000
   15.3093   -7.4773   11.1702 C   0  0  0  0  0  0  0  0  0  0  0  0
   14.9064   -8.6691   11.1726 C   0  0  1  0  0  0  0  0  0  0  0  0
   14.5799   -6.3993   11.7263 C   0  0  0  0  0  0  0  0  0  0  0  0
   13.7983   -8.9193   11.4777 C   0  0  1  0  0  0  0  0  0  0  0  0
   13.5058   -6.7123   11.9883 C   0  0  2  0  0  0  0  0  0  0  0  0
   12.8968   -7.9825   11.8534 C   0  0  0  0  0  0  0  0  0  0  0  0
   12.5319   -5.6011   12.3361 O   0  0  0  0  0  0  0  0  0  0  0  0
   11.9293   -4.7495   11.4985 C   0  0  0  0  0  0  0  0  0  0  0  0
   16.0763   -9.9257   10.5678 Cl  0  0  0  0  0  0  0  0  0  0  0  0
   12.9894  -10.3919   11.3596 C   0  0  0  0  0  0  0  0  0  0  0  0
   11.6679  -10.4457   11.1978 C   0  0  0  0  0  0  0  0  0  0  0  0
   11.0963  -11.7868   10.8129 C   0  0  0  0  0  0  0  0  0  0  0  0
   10.1550  -11.9097    9.8854 C   0  0  0  0  0  0  0  0  0  0  0  0
    9.3152  -10.7457    9.6870 C   0  0  0  0  0  0  0  0  0  0  0  0
   10.9977   -3.9634   12.0746 C   0  0  0  0  0  0  0  0  0  0  0  0
   10.1315   -4.5861   13.0308 C   0  0  0  0  0  0  0  0  0  0  0  0
    9.7458   -9.4835   10.1860 C   0  0  0  0  0  0  0  0  0  0  0  0
   10.7290   -9.3859   11.0561 C   0  0  0  0  0  0  0  0  0  0  0  0
  1  2  1  0
  1  3  1  0
  2  4  1  0
  3  5  1  0
  4  6  1  0
  5  6  1  0
  5  7  1  6
  7  8  1  0
  2  9  1  6
  4 10  1  6
 10 11  1  0
 11 12  1  0
 12 13  1  0
 13 14  1  0
  8 15  1  0
 15 16  1  0
 14 17  1  0
 11 18  1  0
 17 18  1  0
M  END
$$$$
5
     RDKit          3D

  9  9  0  0  0  0  0  0  0  0999 V2000
   10.4674   -7.7804    2.9846 C   0  0  0  0  0  0  0  0  0  0  0  0
   10.6420   -6.8021    2.2153 C   0  0  0  0  0  0  0  0  0  0  0  0
   11.0077   -6.8551    0.9108 C   0  0  0  0  0  0  0  0  0  0  0  0
    9.7184   -7.6008    4.2432 C   0  0  0  0  0  0  0  0  0  0  0  0
   10.0401   -5.5165    2.8112 C   0  0  0  0  0  0  0  0  0  0  0  0
    9.3615   -6.3595    4.5499 C   0  0  0  0  0  0  0  0  0  0  0  0
   11.2629   -5.7620    0.1759 O   0  0  0  0  0  0  0  0  0  0  0  0
   10.4132   -7.8397    0.0624 O   0  0  0  0  0  0  0  0  0  0  0  0
    9.7256   -5.4731    3.9978 C   0  0  0  0  0  0  0  0  0  0  0  0
  1  2  1  0
  2  3  1  0
  1  4  1  0
  2  5  1  0
  4  6  1  0
  3  7  1  0
  3  8  2  0
  5  9  1  0
  6  9  1  0
M  END
$$$$
50
     RDKit          3D

 18 20  0  0  0  0  0  0  0  0999 V2000
   13.3447  -11.1179   11.7852 C   0  0  0  0  0  0  0  0  0  0  0  0
   13.6693   -9.8967   11.8978 C   0  0  2  0  0  0  0  0  0  0  0  0
   12.7206   -8.8984   11.6799 C   0  0  2  0  0  0  0  0  0  0  0  0
   11.9773  -11.4314   11.1596 C   0  0  0  0  0  0  0  0  0  0  0  0
   11.2292  -10.4416   10.8824 C   0  0  0  0  0  0  0  0  0  0  0  0
   11.4353   -9.1639   11.0950 C   0  0  0  0  0  0  0  0  0  0  0  0
   13.0703   -7.5213   11.7714 C   0  0  1  0  0  0  0  0  0  0  0  0
   12.5260   -6.5690   12.3958 N   0  0  0  0  0  0  0  0  0  0  0  0
   14.5892   -7.1576   11.5891 C   0  0  1  0  0  0  0  0  0  0  0  0
   15.6166   -8.0382   11.0760 C   0  0  0  0  0  0  0  0  0  0  0  0
   15.1133   -9.5963   11.4132 C   0  0  0  0  0  0  0  0  0  0  0  0
   14.8416   -5.8289   11.7652 C   0  0  0  0  0  0  0  0  0  0  0  0
   13.4645   -5.3784   12.4097 C   0  0  0  0  0  0  0  0  0  0  0  0
   13.1634   -4.0620   12.9426 C   0  0  1  0  0  0  0  0  0  0  0  0
   14.2368   -3.4078   13.4283 C   0  0  0  0  0  0  0  0  0  0  0  0
   12.5361   -3.1422   11.7838 C   0  0  0  0  0  0  0  0  0  0  0  0
   11.0625   -3.0000   11.7021 C   0  0  0  0  0  0  0  0  0  0  0  0
   10.3164   -3.9282   10.9745 C   0  0  0  0  0  0  0  0  0  0  0  0
  2  1  1  6
  2  3  1  0
  1  4  1  0
  4  5  1  0
  3  6  1  6
  5  6  1  0
  3  7  1  0
  7  8  1  1
  7  9  1  0
  9 10  1  6
  2 11  1  0
 10 11  1  0
  9 12  1  0
  8 13  1  0
 12 13  1  0
 13 14  1  0
 14 15  1  6
 14 16  1  0
 16 17  1  0
 17 18  1  0
M  END
$$$$
51
     RDKit          3D

 18 19  0  0  0  0  0  0  0  0999 V2000
   15.3093   -7.4773   11.1702 C   0  0  0  0  0  0  0  0  0  0  0  0
   14.4758   -6.8275   11.8919 C   0  0  0  0  0  0  0  0  0  0  0  0
   15.5632   -8.7519   11.3912 C   0  0  0  0  0  0  0  0  0  0  0  0
   14.4758   -9.5490   11.8873 C   0  0  0  0  0  0  0  0  0  0  0  0
   14.3060   -5.3416   11.8787 C   0  0  2  0  0  0  0  0  0  0  0  0
   13.3210   -8.9467   12.2786 C   0  0  0  0  0  0  0  0  0  0  0  0
   13.4617   -7.5918   12.5280 C   0  0  0  0  0  0  0  0  0  0  0  0
   15.0482   -4.7900   13.0134 C   0  0  0  0  0  0  0  0  0  0  0  0
   16.0150   -5.2467   13.5051 O   0  0  0  0  0  0  0  0  0  0  0  0
   14.5393   -3.6717   13.5647 O   0  0  0  0  0  0  0  0  0  0  0  0
   13.0362   -4.7269   11.7554 C   0  0  1  0  0  0  0  0  0  0  0  0
   12.5517   -4.5191   10.3976 C   0  0  0  0  0  0  0  0  0  0  0  0
   11.8095   -3.2077   10.1691 C   0  0  1  0  0  0  0  0  0  0  0  0
   11.2833   -2.6187   11.2589 C   0  0  0  0  0  0  0  0  0  0  0  0
   12.5065   -2.3363    9.2372 C   0  0  0  0  0  0  0  0  0  0  0  0
   11.3652   -3.1666   12.6159 C   0  0  0  0  0  0  0  0  0  0  0  0
   12.9590   -1.0621    9.6380 C   0  0  0  0  0  0  0  0  0  0  0  0
   11.8476   -4.3325   12.7572 C   0  0  0  0  0  0  0  0  0  0  0  0
  1  2  1  0
  1  3  1  0
  3  4  1  0
  5  2  1  1
  4  6  1  0
  2  7  1  0
  6  7  1  0
  5  8  1  0
  8  9  2  0
  8 10  1  0
  5 11  1  0
 11 12  1  6
 12 13  1  0
 13 14  1  0
 13 15  1  1
 14 16  1  0
 15 17  1  0
 11 18  1  0
 16 18  1  0
M  END
$$$$
52
     RDKit          3D

 18 19  0  0  0  0  0  0  0  0999 V2000
   15.3093   -7.4773   11.1702 C   0  0  0  0  0  0  0  0  0  0  0  0
   14.4758   -6.8275   11.8919 C   0  0  0  0  0  0  0  0  0  0  0  0
   15.5632   -8.7519   11.3912 C   0  0  0  0  0  0  0  0  0  0  0  0
   14.4758   -9.5490   11.8873 C   0  0  0  0  0  0  0  0  0  0  0  0
   14.3060   -5.3416   11.8787 C   0  0  0  0  0  0  0  0  0  0  0  0
   13.3210   -8.9467   12.2786 C   0  0  0  0  0  0  0  0  0  0  0  0
   13.4617   -7.5918   12.5280 C   0  0  0  0  0  0  0  0  0  0  0  0
   13.6352   -4.6853   12.5667 O   0  0  0  0  0  0  0  0  0  0  0  0
   15.1996   -4.7472   11.1103 O   0  0  0  0  0  0  0  0  0  0  0  0
   13.0650   -3.4613   12.2194 C   0  0  1  0  0  0  0  0  0  0  0  0
   13.8057   -2.5718   11.5976 C   0  0  0  0  0  0  0  0  0  0  0  0
   11.6778   -3.7242   11.5075 C   0  0  2  0  0  0  0  0  0  0  0  0
   11.3674   -2.9284   10.5601 C   0  0  0  0  0  0  0  0  0  0  0  0
   13.3345   -1.7661   10.6005 C   0  0  0  0  0  0  0  0  0  0  0  0
   10.7818   -4.7479   12.2321 C   0  0  0  0  0  0  0  0  0  0  0  0
   10.7588   -5.9458   11.6614 O   0  0  0  0  0  0  0  0  0  0  0  0
   12.1613   -2.0016   10.0115 C   0  0  0  0  0  0  0  0  0  0  0  0
   10.3956   -4.7079   13.4265 O   0  0  0  0  0  0  0  0  0  0  0  0
  1  2  1  0
  1  3  1  0
  3  4  1  0
  2  5  1  0
  4  6  1  0
  2  7  1  0
  6  7  1  0
  5  8  1  0
  5  9  2  0
 10  8  1  6
 10 11  1  0
 10 12  1  0
 12 13  1  0
 11 14  1  0
 12 15  1  1
 15 16  1  0
 13 17  1  0
 14 17  1  0
 15 18  2  0
M  END
$$$$
53
     RDKit          3D

 18 20  0  0  0  0  0  0  0  0999 V2000
   10.4674   -7.7804    2.9846 C   0  0  0  0  0  0  0  0  0  0  0  0
   10.6420   -6.8021    2.2153 C   0  0  1  0  0  0  0  0  0  0  0  0
   11.0077   -6.8551    0.9108 C   0  0  0  0  0  0  0  0  0  0  0  0
    9.7184   -7.6008    4.2432 C   0  0  0  0  0  0  0  0  0  0  0  0
   10.0401   -5.5165    2.8112 C   0  0  2  0  0  0  0  0  0  0  0  0
    9.3323   -6.4507    4.7351 C   0  0  0  0  0  0  0  0  0  0  0  0
    8.7831   -6.3267    6.0576 C   0  0  0  0  0  0  0  0  0  0  0  0
    8.2110   -7.3164    6.6956 C   0  0  0  0  0  0  0  0  0  0  0  0
   11.1755   -5.6601    0.1595 C   0  0  2  0  0  0  0  0  0  0  0  0
   11.6945   -5.6430   -1.1649 C   0  0  0  0  0  0  0  0  0  0  0  0
   10.4400   -4.3264    1.9913 N   0  0  0  0  0  0  0  0  0  0  0  0
   11.0074   -4.4208    0.7931 C   0  0  0  0  0  0  0  0  0  0  0  0
    9.4680   -5.3408    3.9594 C   0  0  0  0  0  0  0  0  0  0  0  0
    7.5310   -6.9957    7.9340 C   0  0  0  0  0  0  0  0  0  0  0  0
    8.0784   -5.1102    6.5331 C   0  0  0  0  0  0  0  0  0  0  0  0
    7.6310   -5.5032    7.9768 C   0  0  0  0  0  0  0  0  0  0  0  0
   12.9759   -5.2953   -1.3962 O   0  0  0  0  0  0  0  0  0  0  0  0
   11.1701   -6.3777   -2.1570 N   0  0  0  0  0  0  0  0  0  0  0  0
  2  1  1  6
  2  3  1  0
  1  4  1  0
  2  5  1  0
  4  6  1  0
  6  7  1  0
  7  8  1  0
  3  9  1  0
  9 10  1  1
  5 11  1  0
  9 12  1  0
 11 12  1  0
  5 13  1  1
  6 13  1  0
  8 14  1  0
  7 15  1  0
 14 16  1  0
 15 16  1  0
 10 17  2  0
 10 18  1  0
M  END
$$$$
54
     RDKit          3D

 18 20  0  0  0  0  0  0  0  0999 V2000
   10.4666   -7.3028    2.4819 C   0  0  1  0  0  0  0  0  0  0  0  0
    9.9461   -7.5592    3.6615 C   0  0  0  0  0  0  0  0  0  0  0  0
    9.6960   -6.5737    4.6246 C   0  0  0  0  0  0  0  0  0  0  0  0
   10.6698   -8.3019    1.5059 C   0  0  2  0  0  0  0  0  0  0  0  0
   10.6707   -5.8456    2.1807 C   0  0  2  0  0  0  0  0  0  0  0  0
   11.2532   -5.4445    0.9522 C   0  0  0  0  0  0  0  0  0  0  0  0
   10.3903   -4.7747    3.1677 C   0  0  0  0  0  0  0  0  0  0  0  0
    9.8638   -5.2433    4.3834 C   0  0  2  0  0  0  0  0  0  0  0  0
   10.3729   -9.5275    1.6490 O   0  0  0  0  0  0  0  0  0  0  0  0
   11.4182   -7.8840    0.2517 C   0  0  0  0  0  0  0  0  0  0  0  0
   11.5889   -6.5133    0.0355 C   0  0  0  0  0  0  0  0  0  0  0  0
    9.5343   -4.1544    5.4942 C   0  0  2  0  0  0  0  0  0  0  0  0
    9.9250   -2.9378    5.4579 C   0  0  0  0  0  0  0  0  0  0  0  0
    9.6506   -1.9448    6.4297 C   0  0  2  0  0  0  0  0  0  0  0  0
   10.0771   -0.7097    6.3474 O   0  0  0  0  0  0  0  0  0  0  0  0
    9.7577   -2.5145    7.7856 C   0  0  0  0  0  0  0  0  0  0  0  0
    9.6189   -3.7664    8.0718 C   0  0  0  0  0  0  0  0  0  0  0  0
    9.5559   -4.6936    6.9106 C   0  0  0  0  0  0  0  0  0  0  0  0
  1  2  1  6
  2  3  1  0
  1  4  1  0
  1  5  1  0
  5  6  1  1
  5  7  1  0
  8  3  1  1
  7  8  1  0
  4  9  1  1
  4 10  1  0
  6 11  1  0
 10 11  1  0
  8 12  1  0
 12 13  1  1
 13 14  1  0
 14 15  1  1
 14 16  1  0
 16 17  1  0
 12 18  1  0
 17 18  1  0
M  END
$$$$
55
     RDKit          3D

 18 20  0  0  0  0  0  0  0  0999 V2000
   10.4674   -7.7804    2.9846 C   0  0  0  0  0  0  0  0  0  0  0  0
   10.6420   -6.8021    2.2153 C   0  0  1  0  0  0  0  0  0  0  0  0
   11.0077   -6.8551    0.9108 C   0  0  0  0  0  0  0  0  0  0  0  0
    9.7184   -7.6008    4.2432 C   0  0  0  0  0  0  0  0  0  0  0  0
   10.0401   -5.5165    2.8112 C   0  0  2  0  0  0  0  0  0  0  0  0
    9.3323   -6.4507    4.7351 C   0  0  0  0  0  0  0  0  0  0  0  0
    8.7831   -6.3267    6.0576 C   0  0  0  0  0  0  0  0  0  0  0  0
    8.2110   -7.3164    6.6956 C   0  0  0  0  0  0  0  0  0  0  0  0
   11.1755   -5.6601    0.1595 C   0  0  2  0  0  0  0  0  0  0  0  0
   11.6945   -5.6430   -1.1649 C   0  0  0  0  0  0  0  0  0  0  0  0
   10.4400   -4.3264    1.9913 N   0  0  0  0  0  0  0  0  0  0  0  0
   11.0074   -4.4208    0.7931 C   0  0  0  0  0  0  0  0  0  0  0  0
    9.4680   -5.3408    3.9594 C   0  0  0  0  0  0  0  0  0  0  0  0
    7.5310   -6.9957    7.9340 C   0  0  0  0  0  0  0  0  0  0  0  0
    8.0784   -5.1102    6.5331 C   0  0  0  0  0  0  0  0  0  0  0  0
    7.6310   -5.5032    7.9768 C   0  0  0  0  0  0  0  0  0  0  0  0
   12.9759   -5.2953   -1.3962 O   0  0  0  0  0  0  0  0  0  0  0  0
   10.8229   -5.8820   -2.0498 O   0  0  0  0  0  0  0  0  0  0  0  0
  2  1  1  6
  2  3  1  0
  1  4  1  0
  2  5  1  0
  4  6  1  0
  6  7  1  0
  7  8  1  0
  3  9  1  0
  9 10  1  1
  5 11  1  0
  9 12  1  0
 11 12  1  0
  5 13  1  1
  6 13  1  0
  8 14  1  0
  7 15  1  0
 14 16  1  0
 15 16  1  0
 10 17  2  0
 10 18  1  0
M  END
$$$$
56
     RDKit          3D

 18 20  0  0  0  0  0  0  0  0999 V2000
   10.4674   -7.7804    2.9846 C   0  0  2  0  0  0  0  0  0  0  0  0
   10.6420   -6.8021    2.2153 C   0  0  2  0  0  0  0  0  0  0  0  0
   11.0077   -6.8551    0.9108 C   0  0  0  0  0  0  0  0  0  0  0  0
   10.7470   -5.4596    2.8761 C   0  0  2  0  0  0  0  0  0  0  0  0
   10.1989   -9.0183    2.2414 F   0  0  0  0  0  0  0  0  0  0  0  0
    9.9532   -7.7460    4.2602 C   0  0  0  0  0  0  0  0  0  0  0  0
   11.3517   -5.7050    0.1515 C   0  0  0  0  0  0  0  0  0  0  0  0
    9.7614   -6.4529    4.7872 C   0  0  1  0  0  0  0  0  0  0  0  0
    9.3271   -6.3580    6.1544 C   0  0  0  0  0  0  0  0  0  0  0  0
   10.1932   -5.3440    4.0456 C   0  0  1  0  0  0  0  0  0  0  0  0
   11.0579   -4.2678    2.0651 C   0  0  0  0  0  0  0  0  0  0  0  0
    9.2799   -4.9465    6.6072 C   0  0  0  0  0  0  0  0  0  0  0  0
   11.4173   -4.4247    0.8162 C   0  0  0  0  0  0  0  0  0  0  0  0
    9.7679   -4.0582    5.9028 C   0  0  2  0  0  0  0  0  0  0  0  0
    9.6193   -2.5919    6.5248 C   0  0  0  0  0  0  0  0  0  0  0  0
   10.2736   -4.0461    4.6550 C   0  0  0  0  0  0  0  0  0  0  0  0
   10.4811   -1.7790    6.6643 O   0  0  0  0  0  0  0  0  0  0  0  0
    8.4019   -2.2832    7.1550 O   0  0  0  0  0  0  0  0  0  0  0  0
  1  2  1  0
  2  3  1  1
  2  4  1  0
  1  5  1  6
  1  6  1  0
  3  7  1  0
  8  6  1  1
  8  9  1  0
  4 10  1  0
  8 10  1  0
  4 11  1  6
  9 12  1  0
  7 13  1  0
 11 13  1  0
 12 14  1  0
 14 15  1  6
 10 16  1  1
 14 16  1  0
 15 17  2  0
 15 18  1  0
M  END
$$$$
57
     RDKit          3D

 18 20  0  0  0  0  0  0  0  0999 V2000
   13.3643   -1.3070   10.1055 C   0  0  0  0  0  0  0  0  0  0  0  0
   13.1510   -2.4233   10.7006 C   0  0  1  0  0  0  0  0  0  0  0  0
   13.8719   -2.7388   11.8721 C   0  0  0  0  0  0  0  0  0  0  0  0
   11.7508   -3.0216   10.7793 C   0  0  2  0  0  0  0  0  0  0  0  0
   13.5454   -3.8871   12.7069 C   0  0  2  0  0  0  0  0  0  0  0  0
   11.3985   -4.0417   11.6263 C   0  0  1  0  0  0  0  0  0  0  0  0
   10.9295   -2.5223    9.8273 O   0  0  0  0  0  0  0  0  0  0  0  0
   12.3025   -4.4179   12.6663 C   0  0  1  0  0  0  0  0  0  0  0  0
    9.9001   -4.7288   11.5958 C   0  0  0  0  0  0  0  0  0  0  0  0
   11.5044   -1.6146    8.9419 C   0  0  2  0  0  0  0  0  0  0  0  0
   12.5653   -0.9875    9.0461 C   0  0  0  0  0  0  0  0  0  0  0  0
   14.4548   -4.2126   13.7469 O   0  0  0  0  0  0  0  0  0  0  0  0
   10.3216   -1.3486    7.9611 C   0  0  0  0  0  0  0  0  0  0  0  0
    9.9885   -2.0675    7.0451 C   0  0  0  0  0  0  0  0  0  0  0  0
    9.9947   -5.7880   12.5715 C   0  0  0  0  0  0  0  0  0  0  0  0
   11.9044   -5.5364   13.4851 C   0  0  0  0  0  0  0  0  0  0  0  0
   10.7782   -6.1980   13.3526 C   0  0  0  0  0  0  0  0  0  0  0  0
    9.1309   -1.8774    6.0774 C   0  0  0  0  0  0  0  0  0  0  0  0
  2  1  1  1
  2  3  1  0
  2  4  1  0
  3  5  1  0
  4  6  1  0
  4  7  1  6
  5  8  1  0
  6  8  1  0
  6  9  1  1
  7 10  1  0
  1 11  1  0
 10 11  1  0
  5 12  1  1
 10 13  1  1
 13 14  1  0
  9 15  1  0
  8 16  1  6
 15 17  1  0
 16 17  1  0
 14 18  1  0
M  END
$$$$
58
     RDKit          3D

 19 21  0  0  0  0  0  0  0  0999 V2000
   10.4666   -7.3028    2.4819 C   0  0  1  0  0  0  0  0  0  0  0  0
    9.9461   -7.5592    3.6615 C   0  0  0  0  0  0  0  0  0  0  0  0
    9.6960   -6.5737    4.6246 C   0  0  0  0  0  0  0  0  0  0  0  0
   10.6698   -8.3019    1.5059 C   0  0  2  0  0  0  0  0  0  0  0  0
   10.6707   -5.8456    2.1807 C   0  0  2  0  0  0  0  0  0  0  0  0
   11.2532   -5.4445    0.9522 C   0  0  0  0  0  0  0  0  0  0  0  0
   10.3903   -4.7747    3.1677 C   0  0  0  0  0  0  0  0  0  0  0  0
    9.8638   -5.2433    4.3834 C   0  0  2  0  0  0  0  0  0  0  0  0
   10.3729   -9.5275    1.6490 O   0  0  0  0  0  0  0  0  0  0  0  0
   11.4182   -7.8840    0.2517 C   0  0  0  0  0  0  0  0  0  0  0  0
   11.5889   -6.5133    0.0355 C   0  0  0  0  0  0  0  0  0  0  0  0
    9.5343   -4.1544    5.4942 C   0  0  2  0  0  0  0  0  0  0  0  0
    9.9250   -2.9378    5.4579 C   0  0  0  0  0  0  0  0  0  0  0  0
    9.6506   -1.9448    6.4297 C   0  0  1  0  0  0  0  0  0  0  0  0
   10.0771   -0.7097    6.3474 O   0  0  0  0  0  0  0  0  0  0  0  0
    8.7017   -2.2079    7.4281 C   0  0  0  0  0  0  0  0  0  0  0  0
    8.5101   -3.5478    7.7171 C   0  0  0  0  0  0  0  0  0  0  0  0
    8.8048   -4.5641    6.7024 C   0  0  0  0  0  0  0  0  0  0  0  0
   10.2329    0.0799    7.5419 C   0  0  0  0  0  0  0  0  0  0  0  0
  1  2  1  6
  2  3  1  0
  1  4  1  0
  1  5  1  0
  5  6  1  1
  5  7  1  0
  8  3  1  1
  7  8  1  0
  4  9  1  1
  4 10  1  0
  6 11  1  0
 10 11  1  0
  8 12  1  0
 12 13  1  1
 13 14  1  0
 14 15  1  6
 14 16  1  0
 16 17  1  0
 12 18  1  0
 17 18  1  0
 15 19  1  0
M  END
$$$$
59
     RDKit          3D

 19 21  0  0  0  0  0  0  0  0999 V2000
   10.4674   -7.7804    2.9846 C   0  0  0  0  0  0  0  0  0  0  0  0
   10.6420   -6.8021    2.2153 C   0  0  1  0  0  0  0  0  0  0  0  0
   11.0077   -6.8551    0.9108 C   0  0  0  0  0  0  0  0  0  0  0  0
    9.7184   -7.6008    4.2432 C   0  0  0  0  0  0  0  0  0  0  0  0
   10.0401   -5.5165    2.8112 C   0  0  2  0  0  0  0  0  0  0  0  0
    9.3323   -6.4507    4.7351 C   0  0  0  0  0  0  0  0  0  0  0  0
    8.7831   -6.3267    6.0576 C   0  0  0  0  0  0  0  0  0  0  0  0
    8.2110   -7.3164    6.6956 C   0  0  0  0  0  0  0  0  0  0  0  0
   11.1755   -5.6601    0.1595 C   0  0  2  0  0  0  0  0  0  0  0  0
   11.6945   -5.6430   -1.1649 C   0  0  0  0  0  0  0  0  0  0  0  0
   10.4400   -4.3264    1.9913 N   0  0  0  0  0  0  0  0  0  0  0  0
   11.0074   -4.4208    0.7931 C   0  0  0  0  0  0  0  0  0  0  0  0
    9.4680   -5.3408    3.9594 C   0  0  0  0  0  0  0  0  0  0  0  0
    8.6964   -5.0636    6.7119 C   0  0  0  0  0  0  0  0  0  0  0  0
    8.1019   -4.8603    7.9282 C   0  0  0  0  0  0  0  0  0  0  0  0
    7.4661   -6.0243    8.4605 C   0  0  0  0  0  0  0  0  0  0  0  0
   12.9511   -5.2204   -1.4051 O   0  0  0  0  0  0  0  0  0  0  0  0
    7.5591   -7.1594    7.9451 C   0  0  0  0  0  0  0  0  0  0  0  0
   11.2302   -6.4569   -2.1429 N   0  0  0  0  0  0  0  0  0  0  0  0
  2  1  1  6
  2  3  1  0
  1  4  1  0
  2  5  1  0
  4  6  1  0
  6  7  1  0
  7  8  1  0
  3  9  1  0
  9 10  1  1
  5 11  1  0
  9 12  1  0
 11 12  1  0
  5 13  1  1
  6 13  1  0
  7 14  1  0
 14 15  1  0
 15 16  1  0
 10 17  2  0
  8 18  1  0
 16 18  1  0
 10 19  1  0
M  END
$$$$
6
     RDKit          3D

 10 10  0  0  0  0  0  0  0  0999 V2000
   15.2579   -4.2737   13.4131 O   0  0  0  0  0  0  0  0  0  0  0  0
   14.2426   -3.6874   13.0290 C   0  0  0  0  0  0  0  0  0  0  0  0
   13.0575   -4.5495   12.6804 C   0  0  0  0  0  0  0  0  0  0  0  0
   14.1598   -2.4337   12.7262 O   0  0  0  0  0  0  0  0  0  0  0  0
   11.7662   -3.9640   12.2236 C   0  0  0  0  0  0  0  0  0  0  0  0
   11.7784   -3.1281   11.1553 C   0  0  0  0  0  0  0  0  0  0  0  0
   10.4930   -4.3349   12.8139 C   0  0  0  0  0  0  0  0  0  0  0  0
    9.3405   -3.8345   12.1926 C   0  0  0  0  0  0  0  0  0  0  0  0
    9.3791   -3.0421   11.1345 C   0  0  0  0  0  0  0  0  0  0  0  0
   10.5774   -2.6675   10.5716 C   0  0  0  0  0  0  0  0  0  0  0  0
  1  2  1  0
  2  3  1  0
  2  4  2  0
  3  5  1  0
  5  6  1  0
  5  7  1  0
  7  8  1  0
  8  9  1  0
  6 10  1  0
  9 10  1  0
M  END
$$$$
60
     RDKit          3D

 19 22  0  0  0  0  0  0  0  0999 V2000
   10.4951   -5.3695    3.7330 C   0  0  0  0  0  0  0  0  0  0  0  0
    9.9191   -4.9512    4.6839 C   0  0  2  0  0  0  0  0  0  0  0  0
   10.1346   -6.7286    3.2847 C   0  0  0  0  0  0  0  0  0  0  0  0
   10.2203   -3.5333    5.0880 C   0  0  0  0  0  0  0  0  0  0  0  0
    9.0702   -5.7956    5.4076 C   0  0  0  0  0  0  0  0  0  0  0  0
    9.3671   -7.3531    3.9785 C   0  0  0  0  0  0  0  0  0  0  0  0
    9.0351   -8.7755    3.4866 F   0  0  0  0  0  0  0  0  0  0  0  0
    8.4260   -5.1275    6.6795 C   0  0  0  0  0  0  0  0  0  0  0  0
    8.7187   -7.0264    5.1400 C   0  0  0  0  0  0  0  0  0  0  0  0
   11.1013   -2.7495    4.4433 C   0  0  0  0  0  0  0  0  0  0  0  0
   11.0133   -1.4101    4.2746 C   0  0  1  0  0  0  0  0  0  0  0  0
    8.7083   -3.7494    6.9305 C   0  0  0  0  0  0  0  0  0  0  0  0
    9.5838   -3.1480    6.2272 C   0  0  2  0  0  0  0  0  0  0  0  0
   10.3797   -0.6115    5.0642 C   0  0  2  0  0  0  0  0  0  0  0  0
   10.2766    0.7274    5.2336 C   0  0  0  0  0  0  0  0  0  0  0  0
    9.6238   -1.5706    6.4628 C   0  0  0  0  0  0  0  0  0  0  0  0
   10.7896    1.3725    4.1632 C   0  0  0  0  0  0  0  0  0  0  0  0
   11.7290   -0.4747    3.3759 N   0  0  0  0  0  0  0  0  0  0  0  0
   11.5986    0.7456    3.3543 N   0  0  0  0  0  0  0  0  0  0  0  0
  2  1  1  1
  1  3  1  0
  2  4  1  0
  2  5  1  0
  3  6  1  0
  6  7  1  0
  5  8  1  0
  5  9  1  0
  6  9  1  0
  4 10  2  0
 10 11  1  0
  8 12  1  0
  4 13  1  0
 13 12  1  6
 11 14  1  0
 14 15  1  1
 13 16  1  0
 14 16  1  0
 15 17  1  0
 11 18  1  1
 17 19  1  0
 18 19  1  0
M  END
$$$$
61
     RDKit          3D

 19 21  0  0  0  0  0  0  0  0999 V2000
   15.3488   -9.2018   10.6653 C   0  0  0  0  0  0  0  0  0  0  0  0
   14.1677   -9.7313   10.8434 C   0  0  0  0  0  0  0  0  0  0  0  0
   15.6852   -7.9593   11.1709 C   0  0  1  0  0  0  0  0  0  0  0  0
   13.0789   -8.9874   11.4644 C   0  0  0  0  0  0  0  0  0  0  0  0
   11.8263   -9.6296   11.7076 C   0  0  0  0  0  0  0  0  0  0  0  0
   10.6689   -9.1426   11.1389 C   0  0  0  0  0  0  0  0  0  0  0  0
   13.3876   -7.7194   11.7626 C   0  0  1  0  0  0  0  0  0  0  0  0
   16.9396   -7.3861   11.0532 F   0  0  0  0  0  0  0  0  0  0  0  0
   12.3887   -6.8451   12.3283 O   0  0  0  0  0  0  0  0  0  0  0  0
    9.7698  -10.1138   10.4998 C   0  0  0  0  0  0  0  0  0  0  0  0
   10.1220  -10.4446    9.1933 C   0  0  0  0  0  0  0  0  0  0  0  0
   14.7554   -7.0314   11.6332 C   0  0  1  0  0  0  0  0  0  0  0  0
   14.9523   -5.7702   12.1583 C   0  0  0  0  0  0  0  0  0  0  0  0
   13.8204   -4.9492   12.4193 C   0  0  2  0  0  0  0  0  0  0  0  0
   12.4361   -5.5259   12.2982 C   0  0  2  0  0  0  0  0  0  0  0  0
   11.3091   -4.7881   12.4279 C   0  0  0  0  0  0  0  0  0  0  0  0
   14.0991   -3.5522   12.6388 C   0  0  0  0  0  0  0  0  0  0  0  0
   11.3933   -3.3360   12.3095 C   0  0  0  0  0  0  0  0  0  0  0  0
   12.8112   -2.7369   12.5518 C   0  0  0  0  0  0  0  0  0  0  0  0
  1  2  1  0
  1  3  1  0
  2  4  1  0
  4  5  1  0
  5  6  1  0
  4  7  1  0
  3  8  1  6
  7  9  1  1
  6 10  1  0
 10 11  1  0
  3 12  1  0
  7 12  1  0
 12 13  1  1
 14 13  1  6
  9 15  1  0
 14 15  1  0
 15 16  1  1
 14 17  1  0
 16 18  1  0
 17 19  1  0
 18 19  1  0
M  END
$$$$
62
     RDKit          3D

 19 20  0  0  0  0  0  0  0  0999 V2000
   13.3447  -11.1179   11.7852 C   0  0  0  0  0  0  0  0  0  0  0  0
   13.6693   -9.8967   11.8978 C   0  0  0  0  0  0  0  0  0  0  0  0
   11.9866  -11.5484   11.2856 C   0  0  0  0  0  0  0  0  0  0  0  0
   11.5848  -12.9187   11.1276 C   0  0  0  0  0  0  0  0  0  0  0  0
   12.7352   -8.8764   11.5316 C   0  0  0  0  0  0  0  0  0  0  0  0
   11.0084  -10.5470   10.9850 C   0  0  0  0  0  0  0  0  0  0  0  0
   11.4844   -9.2525   11.1517 C   0  0  0  0  0  0  0  0  0  0  0  0
   13.1007   -7.5180   11.5815 C   0  0  1  0  0  0  0  0  0  0  0  0
    9.5596  -10.9299   10.4949 C   0  0  0  0  0  0  0  0  0  0  0  0
   14.4828   -7.1551   11.6847 C   0  0  0  0  0  0  0  0  0  0  0  0
   12.3301   -6.3746   11.4652 C   0  0  0  0  0  0  0  0  0  0  0  0
   12.6807   -5.2154   11.7196 C   0  0  2  0  0  0  0  0  0  0  0  0
   14.9702   -5.8644   11.8918 C   0  0  0  0  0  0  0  0  0  0  0  0
    8.6866   -9.9271   10.1881 C   0  0  0  0  0  0  0  0  0  0  0  0
   14.0576   -4.8765   12.0471 C   0  0  1  0  0  0  0  0  0  0  0  0
   14.4723   -3.5346   12.3451 O   0  0  0  0  0  0  0  0  0  0  0  0
   14.7059   -3.3331   13.6713 C   0  0  0  0  0  0  0  0  0  0  0  0
   11.6107   -3.8872   11.8414 C   0  0  0  0  0  0  0  0  0  0  0  0
   10.4012   -4.2613   12.0612 C   0  0  0  0  0  0  0  0  0  0  0  0
  1  2  1  0
  1  3  1  0
  3  4  1  0
  2  5  1  0
  3  6  1  0
  5  7  1  0
  6  7  1  0
  8  5  1  6
  6  9  1  0
  8 10  1  0
  8 11  1  0
 11 12  1  0
 10 13  1  0
  9 14  1  0
 12 15  1  0
 13 15  1  0
 15 16  1  6
 16 17  1  0
 12 18  1  1
 18 19  1  0
M  END
$$$$
63
     RDKit          3D

 19 21  0  0  0  0  0  0  0  0999 V2000
   10.4674   -7.7804    2.9846 C   0  0  0  0  0  0  0  0  0  0  0  0
   10.6420   -6.8021    2.2153 C   0  0  1  0  0  0  0  0  0  0  0  0
   11.0077   -6.8551    0.9108 C   0  0  0  0  0  0  0  0  0  0  0  0
    9.7184   -7.6008    4.2432 C   0  0  0  0  0  0  0  0  0  0  0  0
   10.0401   -5.5165    2.8112 C   0  0  2  0  0  0  0  0  0  0  0  0
    9.3323   -6.4507    4.7351 C   0  0  0  0  0  0  0  0  0  0  0  0
    8.7831   -6.3267    6.0576 C   0  0  0  0  0  0  0  0  0  0  0  0
    8.2110   -7.3164    6.6956 C   0  0  0  0  0  0  0  0  0  0  0  0
   11.1755   -5.6601    0.1595 C   0  0  2  0  0  0  0  0  0  0  0  0
   11.6945   -5.6430   -1.1649 C   0  0  0  0  0  0  0  0  0  0  0  0
   10.4400   -4.3264    1.9913 N   0  0  0  0  0  0  0  0  0  0  0  0
   11.0074   -4.4208    0.7931 C   0  0  0  0  0  0  0  0  0  0  0  0
    9.4680   -5.3408    3.9594 C   0  0  0  0  0  0  0  0  0  0  0  0
    8.6964   -5.0636    6.7119 C   0  0  0  0  0  0  0  0  0  0  0  0
    8.1019   -4.8603    7.9282 C   0  0  0  0  0  0  0  0  0  0  0  0
    7.4661   -6.0243    8.4605 C   0  0  0  0  0  0  0  0  0  0  0  0
   12.9511   -5.2204   -1.4051 O   0  0  0  0  0  0  0  0  0  0  0  0
    7.5591   -7.1594    7.9451 C   0  0  0  0  0  0  0  0  0  0  0  0
   11.2302   -6.4569   -2.1429 O   0  0  0  0  0  0  0  0  0  0  0  0
  2  1  1  6
  2  3  1  0
  1  4  1  0
  2  5  1  0
  4  6  1  0
  6  7  1  0
  7  8  1  0
  3  9  1  0
  9 10  1  1
  5 11  1  0
  9 12  1  0
 11 12  1  0
  5 13  1  1
  6 13  1  0
  7 14  1  0
 14 15  1  0
 15 16  1  0
 10 17  2  0
  8 18  1  0
 16 18  1  0
 10 19  1  0
M  END
$$$$
64
     RDKit          3D

 19 20  0  0  0  0  0  0  0  0999 V2000
   10.4951   -5.3695    3.7330 C   0  0  2  0  0  0  0  0  0  0  0  0
    9.9191   -4.9512    4.6839 C   0  0  1  0  0  0  0  0  0  0  0  0
    9.1260   -5.6165    5.6197 C   0  0  0  0  0  0  0  0  0  0  0  0
   11.2021   -4.6630    2.7031 C   0  0  0  0  0  0  0  0  0  0  0  0
   10.3865   -3.5107    4.7818 C   0  0  0  0  0  0  0  0  0  0  0  0
   11.4698   -3.3689    3.0742 C   0  0  0  0  0  0  0  0  0  0  0  0
   10.1574   -6.9243    3.2915 C   0  0  0  0  0  0  0  0  0  0  0  0
    9.2491   -7.5387    4.2060 C   0  0  0  0  0  0  0  0  0  0  0  0
   11.0726   -2.8026    4.0966 C   0  0  0  0  0  0  0  0  0  0  0  0
    8.6499   -6.8630    5.3402 C   0  0  0  0  0  0  0  0  0  0  0  0
    9.8185   -2.8685    6.1772 C   0  0  0  0  0  0  0  0  0  0  0  0
   10.6585   -2.4525    7.2092 C   0  0  0  0  0  0  0  0  0  0  0  0
   10.3018   -2.7632    8.4724 C   0  0  0  0  0  0  0  0  0  0  0  0
   10.6486   -3.6722    9.1944 C   0  0  0  0  0  0  0  0  0  0  0  0
   10.2061   -3.7997   10.6572 C   0  0  0  0  0  0  0  0  0  0  0  0
    9.9635   -4.8915   11.2205 C   0  0  0  0  0  0  0  0  0  0  0  0
   10.2717   -5.3264   12.6900 C   0  0  0  0  0  0  0  0  0  0  0  0
   11.5924   -5.7584   12.8686 C   0  0  0  0  0  0  0  0  0  0  0  0
   12.5270   -5.2080   12.4972 O   0  0  0  0  0  0  0  0  0  0  0  0
  1  2  1  0
  2  3  1  1
  1  4  1  6
  2  5  1  0
  4  6  1  0
  1  7  1  0
  7  8  1  0
  5  9  1  0
  6  9  1  0
  3 10  1  0
  8 10  1  0
  5 11  1  0
 11 12  1  0
 12 13  1  0
 13 14  2  3
 14 15  1  0
 15 16  2  3
 16 17  1  0
 17 18  1  0
 18 19  2  0
M  END
$$$$
65
     RDKit          3D

 19 20  0  0  0  0  0  0  0  0999 V2000
   15.3093   -7.4773   11.1702 C   0  0  0  0  0  0  0  0  0  0  0  0
   14.4758   -6.8275   11.8919 C   0  0  0  0  0  0  0  0  0  0  0  0
   15.5632   -8.7519   11.3912 C   0  0  0  0  0  0  0  0  0  0  0  0
   14.4758   -9.5490   11.8873 C   0  0  0  0  0  0  0  0  0  0  0  0
   14.3060   -5.3416   11.8787 C   0  0  0  0  0  0  0  0  0  0  0  0
   13.3210   -8.9467   12.2786 C   0  0  0  0  0  0  0  0  0  0  0  0
   13.4617   -7.5918   12.5280 C   0  0  0  0  0  0  0  0  0  0  0  0
   13.6352   -4.6853   12.5667 O   0  0  0  0  0  0  0  0  0  0  0  0
   15.1996   -4.7472   11.1103 O   0  0  0  0  0  0  0  0  0  0  0  0
   13.0650   -3.4613   12.2194 C   0  0  1  0  0  0  0  0  0  0  0  0
   13.8057   -2.5718   11.5976 C   0  0  0  0  0  0  0  0  0  0  0  0
   11.6778   -3.7242   11.5075 C   0  0  2  0  0  0  0  0  0  0  0  0
   11.3674   -2.9284   10.5601 C   0  0  0  0  0  0  0  0  0  0  0  0
   13.3345   -1.7661   10.6005 C   0  0  2  0  0  0  0  0  0  0  0  0
   10.7818   -4.7479   12.2321 C   0  0  0  0  0  0  0  0  0  0  0  0
   10.7588   -5.9458   11.6614 O   0  0  0  0  0  0  0  0  0  0  0  0
   12.1613   -2.0016   10.0115 C   0  0  0  0  0  0  0  0  0  0  0  0
    9.5697   -4.3238   12.6485 O   0  0  0  0  0  0  0  0  0  0  0  0
   14.0114   -0.7479    9.8828 F   0  0  0  0  0  0  0  0  0  0  0  0
  1  2  1  0
  1  3  1  0
  3  4  1  0
  2  5  1  0
  4  6  1  0
  2  7  1  0
  6  7  1  0
  5  8  1  0
  5  9  2  0
 10  8  1  6
 10 11  1  0
 10 12  1  0
 12 13  1  0
 11 14  1  0
 12 15  1  1
 15 16  1  0
 13 17  1  0
 14 17  1  0
 15 18  2  0
 14 19  1  6
M  END
$$$$
66
     RDKit          3D

 19 21  0  0  0  0  0  0  0  0999 V2000
   10.4666   -7.3028    2.4819 C   0  0  1  0  0  0  0  0  0  0  0  0
    9.9461   -7.5592    3.6615 C   0  0  0  0  0  0  0  0  0  0  0  0
    9.6960   -6.5737    4.6246 C   0  0  0  0  0  0  0  0  0  0  0  0
   10.6698   -8.3019    1.5059 C   0  0  2  0  0  0  0  0  0  0  0  0
   10.6707   -5.8456    2.1807 C   0  0  2  0  0  0  0  0  0  0  0  0
   11.2532   -5.4445    0.9522 C   0  0  0  0  0  0  0  0  0  0  0  0
   10.3903   -4.7747    3.1677 C   0  0  0  0  0  0  0  0  0  0  0  0
    9.8638   -5.2433    4.3834 C   0  0  2  0  0  0  0  0  0  0  0  0
   10.3729   -9.5275    1.6490 O   0  0  0  0  0  0  0  0  0  0  0  0
   11.4182   -7.8840    0.2517 C   0  0  0  0  0  0  0  0  0  0  0  0
   11.5889   -6.5133    0.0355 C   0  0  0  0  0  0  0  0  0  0  0  0
    9.5343   -4.1544    5.4942 C   0  0  2  0  0  0  0  0  0  0  0  0
    9.9250   -2.9378    5.4579 C   0  0  0  0  0  0  0  0  0  0  0  0
    9.6506   -1.9448    6.4297 C   0  0  1  0  0  0  0  0  0  0  0  0
   10.0771   -0.7097    6.3474 O   0  0  0  0  0  0  0  0  0  0  0  0
    8.7017   -2.2079    7.4281 O   0  0  0  0  0  0  0  0  0  0  0  0
    9.5955    0.4244    6.8351 C   0  0  0  0  0  0  0  0  0  0  0  0
    8.9495   -3.4499    8.0197 C   0  0  0  0  0  0  0  0  0  0  0  0
    9.4832   -4.5154    7.0511 C   0  0  0  0  0  0  0  0  0  0  0  0
  1  2  1  6
  2  3  1  0
  1  4  1  0
  1  5  1  0
  5  6  1  1
  5  7  1  0
  8  3  1  1
  7  8  1  0
  4  9  1  1
  4 10  1  0
  6 11  1  0
 10 11  1  0
  8 12  1  0
 12 13  1  1
 13 14  1  0
 14 15  1  6
 14 16  1  0
 15 17  1  0
 16 18  1  0
 12 19  1  0
 18 19  1  0
M  END
$$$$
67
     RDKit          3D

 20 22  0  0  0  0  0  0  0  0999 V2000
   15.2579   -4.2737   13.4131 O   0  0  0  0  0  0  0  0  0  0  0  0
   14.2426   -3.6874   13.0290 C   0  0  0  0  0  0  0  0  0  0  0  0
   13.0575   -4.5495   12.6804 C   0  0  1  0  0  0  0  0  0  0  0  0
   14.1598   -2.4337   12.7262 O   0  0  0  0  0  0  0  0  0  0  0  0
   13.1151   -5.8591   12.4211 C   0  0  2  0  0  0  0  0  0  0  0  0
   14.3833   -6.6049   12.2959 C   0  0  0  0  0  0  0  0  0  0  0  0
   11.8446   -3.9400   12.9859 O   0  0  0  0  0  0  0  0  0  0  0  0
   14.3886   -7.9393   11.8019 C   0  0  2  0  0  0  0  0  0  0  0  0
   15.5566   -8.7807   11.6656 C   0  0  0  0  0  0  0  0  0  0  0  0
   13.2596   -8.6026   11.2783 C   0  0  1  0  0  0  0  0  0  0  0  0
   12.2007   -6.8013   11.7732 C   0  0  1  0  0  0  0  0  0  0  0  0
   10.6772   -4.2201   12.1928 C   0  0  0  0  0  0  0  0  0  0  0  0
   13.3909  -10.0386   10.8757 C   0  0  0  0  0  0  0  0  0  0  0  0
   12.0669   -8.0144   11.4233 C   0  0  0  0  0  0  0  0  0  0  0  0
   12.3364  -10.7975   10.4583 C   0  0  0  0  0  0  0  0  0  0  0  0
   14.9571  -10.1215   11.1061 C   0  0  0  0  0  0  0  0  0  0  0  0
   11.2727  -10.2738    9.7475 C   0  0  0  0  0  0  0  0  0  0  0  0
   10.7569   -5.6178   11.6752 C   0  0  0  0  0  0  0  0  0  0  0  0
   10.0616  -10.4632   10.0303 C   0  0  0  0  0  0  0  0  0  0  0  0
    8.9676  -10.2711    9.1577 C   0  0  0  0  0  0  0  0  0  0  0  0
  1  2  1  0
  3  2  1  1
  2  4  2  0
  3  5  1  0
  5  6  1  6
  3  7  1  0
  8  6  1  6
  8  9  1  0
  8 10  1  0
  5 11  1  0
  7 12  1  0
 10 13  1  0
 10 14  1  1
 11 14  1  1
 13 15  1  0
  9 16  1  0
 13 16  1  0
 15 17  1  0
 11 18  1  0
 12 18  1  0
 17 19  1  0
 19 20  1  0
M  END
$$$$
68
     RDKit          3D

 20 22  0  0  0  0  0  0  0  0999 V2000
   13.3447  -11.1179   11.7852 C   0  0  0  0  0  0  0  0  0  0  0  0
   13.6693   -9.8967   11.8978 C   0  0  0  0  0  0  0  0  0  0  0  0
   12.0348  -11.4228   11.1148 C   0  0  0  0  0  0  0  0  0  0  0  0
   11.3663  -10.5721   10.6479 C   0  0  2  0  0  0  0  0  0  0  0  0
   12.8265   -8.8464   11.4802 C   0  0  0  0  0  0  0  0  0  0  0  0
   13.1320   -7.4856   11.5957 C   0  0  1  0  0  0  0  0  0  0  0  0
   11.5396   -9.2415   10.8741 C   0  0  0  0  0  0  0  0  0  0  0  0
    9.7935  -11.0787    9.9632 Cl  0  0  0  0  0  0  0  0  0  0  0  0
   12.3812   -6.6321   12.3563 C   0  0  2  0  0  0  0  0  0  0  0  0
   14.4660   -6.9963   11.3144 C   0  0  2  0  0  0  0  0  0  0  0  0
   15.4518   -7.8640   10.6545 O   0  0  0  0  0  0  0  0  0  0  0  0
   11.0044   -6.9817   12.5621 C   0  0  0  0  0  0  0  0  0  0  0  0
   16.7303   -7.9304   11.1691 C   0  0  0  0  0  0  0  0  0  0  0  0
   10.1447   -5.9704   12.9864 C   0  0  0  0  0  0  0  0  0  0  0  0
   14.7501   -5.7769   11.8716 C   0  0  0  0  0  0  0  0  0  0  0  0
   10.4392   -4.6399   12.5196 C   0  0  0  0  0  0  0  0  0  0  0  0
   12.5923   -5.2132   12.0278 C   0  0  2  0  0  0  0  0  0  0  0  0
   13.9147   -4.8554   12.0586 C   0  0  2  0  0  0  0  0  0  0  0  0
   14.2847   -3.5261   12.1562 O   0  0  0  0  0  0  0  0  0  0  0  0
   11.6400   -4.2525   12.1356 C   0  0  0  0  0  0  0  0  0  0  0  0
  1  2  1  0
  1  3  1  0
  3  4  1  0
  2  5  1  0
  6  5  1  1
  4  7  1  0
  5  7  1  0
  4  8  1  1
  6  9  1  0
  6 10  1  0
 10 11  1  1
  9 12  1  6
 11 13  1  0
 12 14  1  0
 10 15  1  0
 14 16  1  0
  9 17  1  0
 15 18  1  0
 17 18  1  0
 18 19  1  6
 16 20  1  0
 17 20  1  1
M  END
$$$$
69
     RDKit          3D

 20 22  0  0  0  0  0  0  0  0999 V2000
   15.2579   -4.2737   13.4131 O   0  0  0  0  0  0  0  0  0  0  0  0
   14.2426   -3.6874   13.0290 C   0  0  0  0  0  0  0  0  0  0  0  0
   13.0575   -4.5495   12.6804 C   0  0  1  0  0  0  0  0  0  0  0  0
   14.1598   -2.4337   12.7262 O   0  0  0  0  0  0  0  0  0  0  0  0
   13.1151   -5.8591   12.4211 C   0  0  2  0  0  0  0  0  0  0  0  0
   14.3833   -6.6049   12.2959 C   0  0  0  0  0  0  0  0  0  0  0  0
   11.8446   -3.9400   12.9859 O   0  0  0  0  0  0  0  0  0  0  0  0
   14.3886   -7.9393   11.8019 C   0  0  2  0  0  0  0  0  0  0  0  0
   15.5566   -8.7807   11.6656 C   0  0  0  0  0  0  0  0  0  0  0  0
   13.2596   -8.6026   11.2783 C   0  0  1  0  0  0  0  0  0  0  0  0
   12.2007   -6.8013   11.7732 C   0  0  1  0  0  0  0  0  0  0  0  0
   10.6772   -4.2201   12.1928 C   0  0  2  0  0  0  0  0  0  0  0  0
   13.3909  -10.0386   10.8757 C   0  0  0  0  0  0  0  0  0  0  0  0
   12.0669   -8.0144   11.4233 C   0  0  0  0  0  0  0  0  0  0  0  0
   12.3364  -10.7975   10.4583 C   0  0  0  0  0  0  0  0  0  0  0  0
   14.9571  -10.1215   11.1061 C   0  0  0  0  0  0  0  0  0  0  0  0
   11.2727  -10.2738    9.7475 C   0  0  0  0  0  0  0  0  0  0  0  0
    9.6589   -3.4933   12.1997 C   0  0  0  0  0  0  0  0  0  0  0  0
   10.8014   -5.7917   11.7889 C   0  0  0  0  0  0  0  0  0  0  0  0
   10.0318  -10.8571   10.0879 C   0  0  0  0  0  0  0  0  0  0  0  0
  1  2  1  0
  3  2  1  1
  2  4  2  0
  3  5  1  0
  5  6  1  6
  3  7  1  0
  8  6  1  6
  8  9  1  0
  8 10  1  0
  5 11  1  0
  7 12  1  0
 10 13  1  0
 10 14  1  1
 11 14  1  1
 13 15  1  0
  9 16  1  0
 13 16  1  0
 15 17  1  0
 12 18  1  1
 11 19  1  0
 12 19  1  0
 17 20  1  0
M  END
$$$$
7
     RDKit          3D

 10 10  0  0  0  0  0  0  0  0999 V2000
   15.5278   -9.8774   11.0991 C   0  0  0  0  0  0  0  0  0  0  0  0
   14.2053  -10.0913   11.2265 C   0  0  0  0  0  0  0  0  0  0  0  0
   15.9732   -8.5824   11.3712 C   0  0  0  0  0  0  0  0  0  0  0  0
   13.2535   -9.2534   11.6606 C   0  0  0  0  0  0  0  0  0  0  0  0
   15.0669   -7.6018   11.7796 C   0  0  0  0  0  0  0  0  0  0  0  0
   13.7418   -7.9032   11.9677 C   0  0  0  0  0  0  0  0  0  0  0  0
   11.7943   -9.3983   11.6530 C   0  0  0  0  0  0  0  0  0  0  0  0
   11.2003  -10.4616   10.7238 C   0  0  0  0  0  0  0  0  0  0  0  0
    9.7886  -10.1743   10.4257 C   0  0  0  0  0  0  0  0  0  0  0  0
    9.5724  -10.2227    9.0315 C   0  0  0  0  0  0  0  0  0  0  0  0
  1  2  1  0
  1  3  1  0
  2  4  1  0
  3  5  1  0
  4  6  1  0
  5  6  1  0
  4  7  1  0
  7  8  1  0
  8  9  1  0
  9 10  1  0
M  END
$$$$
70
     RDKit          3D

 20 21  0  0  0  0  0  0  0  0999 V2000
   13.3643   -1.3070   10.1055 C   0  0  0  0  0  0  0  0  0  0  0  0
   13.1510   -2.4233   10.7006 C   0  0  0  0  0  0  0  0  0  0  0  0
   12.1656   -3.4017   10.5073 C   0  0  1  0  0  0  0  0  0  0  0  0
   11.1938   -3.0569    9.4693 C   0  0  0  0  0  0  0  0  0  0  0  0
   12.2969   -0.9729    9.1347 C   0  0  0  0  0  0  0  0  0  0  0  0
   12.3897    0.2803    8.4441 O   0  0  0  0  0  0  0  0  0  0  0  0
   11.2580   -1.7667    8.9031 C   0  0  1  0  0  0  0  0  0  0  0  0
   12.1382   -4.8092   11.2223 C   0  0  2  0  0  0  0  0  0  0  0  0
   10.8844   -5.1825   11.6221 C   0  0  1  0  0  0  0  0  0  0  0  0
   13.3187   -5.3500   11.5187 C   0  0  2  0  0  0  0  0  0  0  0  0
   10.9408   -6.4540   12.3614 C   0  0  0  0  0  0  0  0  0  0  0  0
    9.7539   -4.5119   11.7505 F   0  0  0  0  0  0  0  0  0  0  0  0
   12.0722   -7.1686   12.4822 C   0  0  0  0  0  0  0  0  0  0  0  0
   14.5680   -4.7899   11.0298 F   0  0  0  0  0  0  0  0  0  0  0  0
   12.0022   -8.4557   12.9215 F   0  0  0  0  0  0  0  0  0  0  0  0
   13.3938   -6.5542   12.1605 C   0  0  1  0  0  0  0  0  0  0  0  0
   10.2599   -1.4107    7.8460 C   0  0  0  0  0  0  0  0  0  0  0  0
   14.8098   -7.2986   12.4095 Cl  0  0  0  0  0  0  0  0  0  0  0  0
   10.3299   -1.9483    6.5344 C   0  0  0  0  0  0  0  0  0  0  0  0
    9.2452   -1.5247    5.5667 C   0  0  0  0  0  0  0  0  0  0  0  0
  1  2  1  0
  3  2  1  6
  3  4  1  0
  1  5  1  0
  5  6  1  0
  7  4  1  6
  5  7  1  0
  8  3  1  1
  8  9  1  0
  8 10  1  0
  9 11  1  0
  9 12  1  1
 11 13  1  0
 10 14  1  6
 13 15  1  0
 10 16  1  0
 13 16  1  0
  7 17  1  0
 16 18  1  6
 17 19  2  3
 19 20  1  0
M  END
$$$$
71
     RDKit          3D

 20 22  0  0  0  0  0  0  0  0999 V2000
   15.3488   -9.2018   10.6653 C   0  0  0  0  0  0  0  0  0  0  0  0
   14.1677   -9.7313   10.8434 C   0  0  0  0  0  0  0  0  0  0  0  0
   15.6852   -7.9593   11.1709 C   0  0  1  0  0  0  0  0  0  0  0  0
   13.0789   -8.9874   11.4644 C   0  0  0  0  0  0  0  0  0  0  0  0
   11.8263   -9.6296   11.7076 C   0  0  0  0  0  0  0  0  0  0  0  0
   10.6689   -9.1426   11.1389 C   0  0  0  0  0  0  0  0  0  0  0  0
   13.3876   -7.7194   11.7626 C   0  0  1  0  0  0  0  0  0  0  0  0
   16.9396   -7.3861   11.0532 F   0  0  0  0  0  0  0  0  0  0  0  0
   12.3887   -6.8451   12.3283 O   0  0  0  0  0  0  0  0  0  0  0  0
    9.7698  -10.1138   10.4998 C   0  0  0  0  0  0  0  0  0  0  0  0
   10.1220  -10.4446    9.1933 C   0  0  0  0  0  0  0  0  0  0  0  0
   14.7554   -7.0314   11.6332 C   0  0  1  0  0  0  0  0  0  0  0  0
   14.9523   -5.7702   12.1583 C   0  0  0  0  0  0  0  0  0  0  0  0
   13.8204   -4.9492   12.4193 C   0  0  2  0  0  0  0  0  0  0  0  0
   12.4361   -5.5259   12.2982 C   0  0  2  0  0  0  0  0  0  0  0  0
   11.3091   -4.7881   12.4279 C   0  0  1  0  0  0  0  0  0  0  0  0
   10.2845   -5.3250   13.1764 C   0  0  0  0  0  0  0  0  0  0  0  0
   13.9326   -3.4673   12.4622 C   0  0  0  0  0  0  0  0  0  0  0  0
   11.4382   -3.3246   12.5262 C   0  0  0  0  0  0  0  0  0  0  0  0
   12.7168   -2.7212   12.4599 C   0  0  0  0  0  0  0  0  0  0  0  0
  1  2  1  0
  1  3  1  0
  2  4  1  0
  4  5  1  0
  5  6  1  0
  4  7  1  0
  3  8  1  6
  7  9  1  1
  6 10  1  0
 10 11  1  0
  3 12  1  0
  7 12  1  0
 12 13  1  1
 14 13  1  6
 15  9  1  1
 14 15  1  0
 15 16  1  0
 16 17  1  1
 14 18  1  0
 16 19  1  0
 18 20  1  0
 19 20  1  0
M  END
$$$$
72
     RDKit          3D

 20 21  0  0  0  0  0  0  0  0999 V2000
   15.3488   -9.2018   10.6653 C   0  0  0  0  0  0  0  0  0  0  0  0
   14.1677   -9.7313   10.8434 C   0  0  0  0  0  0  0  0  0  0  0  0
   15.6852   -7.9593   11.1709 C   0  0  1  0  0  0  0  0  0  0  0  0
   13.0789   -8.9874   11.4644 C   0  0  0  0  0  0  0  0  0  0  0  0
   11.8263   -9.6296   11.7076 C   0  0  0  0  0  0  0  0  0  0  0  0
   10.6689   -9.1426   11.1389 C   0  0  0  0  0  0  0  0  0  0  0  0
   13.3876   -7.7194   11.7626 C   0  0  1  0  0  0  0  0  0  0  0  0
   16.9396   -7.3861   11.0532 F   0  0  0  0  0  0  0  0  0  0  0  0
   12.3887   -6.8451   12.3283 O   0  0  0  0  0  0  0  0  0  0  0  0
    9.7698  -10.1138   10.4998 C   0  0  0  0  0  0  0  0  0  0  0  0
   10.1220  -10.4446    9.1933 C   0  0  0  0  0  0  0  0  0  0  0  0
   14.7554   -7.0314   11.6332 C   0  0  1  0  0  0  0  0  0  0  0  0
   14.9523   -5.7702   12.1583 C   0  0  0  0  0  0  0  0  0  0  0  0
   13.8204   -4.9492   12.4193 C   0  0  1  0  0  0  0  0  0  0  0  0
   12.4361   -5.5259   12.2982 C   0  0  2  0  0  0  0  0  0  0  0  0
   11.4287   -4.7350   12.9370 C   0  0  0  0  0  0  0  0  0  0  0  0
   14.3869   -3.6131   12.8780 C   0  0  0  0  0  0  0  0  0  0  0  0
   15.0453   -3.3762   13.7523 O   0  0  0  0  0  0  0  0  0  0  0  0
   14.1332   -2.6361   12.0437 O   0  0  0  0  0  0  0  0  0  0  0  0
   10.1580   -4.9268   12.1098 C   0  0  0  0  0  0  0  0  0  0  0  0
  1  2  1  0
  1  3  1  0
  2  4  1  0
  4  5  1  0
  5  6  1  0
  4  7  1  0
  3  8  1  6
  7  9  1  1
  6 10  1  0
 10 11  1  0
  3 12  1  0
  7 12  1  0
 12 13  1  1
 13 14  1  0
  9 15  1  0
 14 15  1  0
 15 16  1  1
 14 17  1  1
 17 18  2  0
 17 19  1  0
 16 20  1  0
M  END
$$$$
73
     RDKit          3D

 20 22  0  0  0  0  0  0  0  0999 V2000
   13.3447  -11.1179   11.7852 C   0  0  0  0  0  0  0  0  0  0  0  0
   13.6693   -9.8967   11.8978 C   0  0  0  0  0  0  0  0  0  0  0  0
   12.0348  -11.4228   11.1148 C   0  0  0  0  0  0  0  0  0  0  0  0
   11.3663  -10.5721   10.6479 C   0  0  2  0  0  0  0  0  0  0  0  0
   12.8265   -8.8464   11.4802 C   0  0  0  0  0  0  0  0  0  0  0  0
   13.1320   -7.4856   11.5957 C   0  0  1  0  0  0  0  0  0  0  0  0
   11.5396   -9.2415   10.8741 C   0  0  0  0  0  0  0  0  0  0  0  0
    9.7935  -11.0787    9.9632 Cl  0  0  0  0  0  0  0  0  0  0  0  0
   12.3812   -6.6321   12.3563 C   0  0  2  0  0  0  0  0  0  0  0  0
   14.4660   -6.9963   11.3144 C   0  0  2  0  0  0  0  0  0  0  0  0
   15.4518   -7.8640   10.6545 O   0  0  0  0  0  0  0  0  0  0  0  0
   11.0044   -6.9817   12.5621 C   0  0  0  0  0  0  0  0  0  0  0  0
   16.7303   -7.9304   11.1691 C   0  0  0  0  0  0  0  0  0  0  0  0
   10.1447   -5.9704   12.9864 C   0  0  0  0  0  0  0  0  0  0  0  0
   14.7501   -5.7769   11.8716 C   0  0  0  0  0  0  0  0  0  0  0  0
   10.4392   -4.6399   12.5196 C   0  0  0  0  0  0  0  0  0  0  0  0
   12.5923   -5.2132   12.0278 C   0  0  1  0  0  0  0  0  0  0  0  0
   11.5952   -4.2786   12.1604 C   0  0  0  0  0  0  0  0  0  0  0  0
   13.9295   -4.8221   12.0252 C   0  0  2  0  0  0  0  0  0  0  0  0
   14.3517   -3.3751   12.1042 C   0  0  0  0  0  0  0  0  0  0  0  0
  1  2  1  0
  1  3  1  0
  3  4  1  0
  2  5  1  0
  6  5  1  1
  4  7  1  0
  5  7  1  0
  4  8  1  1
  6  9  1  0
  6 10  1  0
 10 11  1  1
  9 12  1  6
 11 13  1  0
 12 14  1  0
 10 15  1  0
 14 16  1  0
  9 17  1  0
 16 18  1  0
 17 18  1  1
 15 19  1  0
 17 19  1  0
 19 20  1  6
M  END
$$$$
74
     RDKit          3D

 20 22  0  0  0  0  0  0  0  0999 V2000
   13.6823   -9.6804    9.9810 C   0  0  0  0  0  0  0  0  0  0  0  0
   12.6851  -10.1838   10.7540 C   0  0  1  0  0  0  0  0  0  0  0  0
   14.8974   -9.2896   10.8178 C   0  0  0  0  0  0  0  0  0  0  0  0
   14.5641   -8.3549   11.8115 C   0  0  0  0  0  0  0  0  0  0  0  0
   15.6784   -7.8033   12.5979 C   0  0  0  0  0  0  0  0  0  0  0  0
   13.2663   -7.9650   11.9782 C   0  0  2  0  0  0  0  0  0  0  0  0
   12.2288   -8.9352   11.5551 C   0  0  0  0  0  0  0  0  0  0  0  0
   11.6594  -11.0673   10.3265 C   0  0  0  0  0  0  0  0  0  0  0  0
   10.4483  -11.0083   10.6349 C   0  0  0  0  0  0  0  0  0  0  0  0
   15.5966   -6.4263   12.9026 C   0  0  1  0  0  0  0  0  0  0  0  0
    9.4733  -11.9142   10.0762 C   0  0  0  0  0  0  0  0  0  0  0  0
   16.5681   -5.7928   13.4677 C   0  0  0  0  0  0  0  0  0  0  0  0
   14.3601   -5.8125   12.4316 C   0  0  1  0  0  0  0  0  0  0  0  0
   16.4440   -4.3681   13.5927 C   0  0  0  0  0  0  0  0  0  0  0  0
   13.0421   -6.6509   12.4083 C   0  0  1  0  0  0  0  0  0  0  0  0
   11.9900   -5.8008   11.8215 C   0  0  0  0  0  0  0  0  0  0  0  0
   15.2593   -3.7195   13.2302 C   0  0  0  0  0  0  0  0  0  0  0  0
   14.1858   -4.5115   12.7119 C   0  0  0  0  0  0  0  0  0  0  0  0
   10.6288   -6.1546   12.3485 C   0  0  0  0  0  0  0  0  0  0  0  0
    9.9322   -5.0434   12.9481 C   0  0  0  0  0  0  0  0  0  0  0  0
  1  2  1  0
  1  3  1  0
  3  4  1  0
  4  5  1  0
  4  6  1  0
  2  7  1  0
  6  7  1  6
  2  8  1  6
  8  9  1  0
 10  5  1  6
  9 11  1  0
 10 12  1  0
 10 13  1  0
 12 14  1  0
  6 15  1  0
 13 15  1  0
 15 16  1  6
 14 17  1  0
 13 18  1  1
 17 18  1  0
 16 19  1  0
 19 20  1  0
M  END
$$$$
75
     RDKit          3D

 20 22  0  0  0  0  0  0  0  0999 V2000
   15.3488   -9.2018   10.6653 C   0  0  0  0  0  0  0  0  0  0  0  0
   14.1677   -9.7313   10.8434 C   0  0  0  0  0  0  0  0  0  0  0  0
   15.6852   -7.9593   11.1709 C   0  0  1  0  0  0  0  0  0  0  0  0
   13.0789   -8.9874   11.4644 C   0  0  0  0  0  0  0  0  0  0  0  0
   11.8263   -9.6296   11.7076 C   0  0  0  0  0  0  0  0  0  0  0  0
   10.6689   -9.1426   11.1389 C   0  0  0  0  0  0  0  0  0  0  0  0
   13.3876   -7.7194   11.7626 C   0  0  1  0  0  0  0  0  0  0  0  0
   16.9396   -7.3861   11.0532 F   0  0  0  0  0  0  0  0  0  0  0  0
   12.3887   -6.8451   12.3283 O   0  0  0  0  0  0  0  0  0  0  0  0
    9.7698  -10.1138   10.4998 C   0  0  0  0  0  0  0  0  0  0  0  0
   10.1220  -10.4446    9.1933 C   0  0  0  0  0  0  0  0  0  0  0  0
   14.7554   -7.0314   11.6332 C   0  0  1  0  0  0  0  0  0  0  0  0
   14.9523   -5.7702   12.1583 C   0  0  0  0  0  0  0  0  0  0  0  0
   13.8204   -4.9492   12.4193 C   0  0  2  0  0  0  0  0  0  0  0  0
   12.4361   -5.5259   12.2982 C   0  0  2  0  0  0  0  0  0  0  0  0
   11.3091   -4.7881   12.4279 C   0  0  0  0  0  0  0  0  0  0  0  0
   14.0991   -3.5522   12.6388 C   0  0  0  0  0  0  0  0  0  0  0  0
   11.3933   -3.3360   12.3095 C   0  0  0  0  0  0  0  0  0  0  0  0
   15.1938   -2.8941   12.7901 O   0  0  0  0  0  0  0  0  0  0  0  0
   12.7678   -2.6855   12.6763 C   0  0  0  0  0  0  0  0  0  0  0  0
  1  2  1  0
  1  3  1  0
  2  4  1  0
  4  5  1  0
  5  6  1  0
  4  7  1  0
  3  8  1  6
  7  9  1  1
  6 10  1  0
 10 11  1  0
  3 12  1  0
  7 12  1  0
 12 13  1  1
 14 13  1  6
  9 15  1  0
 14 15  1  0
 15 16  1  1
 14 17  1  0
 16 18  1  0
 17 19  1  0
 17 20  1  0
 18 20  1  0
M  END
$$$$
76
     RDKit          3D

 20 21  0  0  0  0  0  0  0  0999 V2000
   15.5092   -8.6337   10.6790 C   0  0  0  0  0  0  0  0  0  0  0  0
   14.9627   -7.6788   11.2928 C   0  0  0  0  0  0  0  0  0  0  0  0
   13.6347   -7.7839   11.7482 C   0  0  0  0  0  0  0  0  0  0  0  0
   14.9391   -9.8589   10.3795 C   0  0  0  0  0  0  0  0  0  0  0  0
   13.6197  -10.0021   10.6994 C   0  0  1  0  0  0  0  0  0  0  0  0
   12.9287  -11.2475   10.4522 O   0  0  0  0  0  0  0  0  0  0  0  0
   12.0296  -11.5273   11.3212 C   0  0  0  0  0  0  0  0  0  0  0  0
   12.9734   -9.0147   11.4846 C   0  0  0  0  0  0  0  0  0  0  0  0
   11.0671  -12.5442   10.7077 C   0  0  0  0  0  0  0  0  0  0  0  0
   12.9668   -6.7361   12.4440 O   0  0  0  0  0  0  0  0  0  0  0  0
   13.4516   -5.2957   12.1609 C   0  0  2  0  0  0  0  0  0  0  0  0
    9.8412  -11.8364   10.2072 C   0  0  0  0  0  0  0  0  0  0  0  0
   13.7457   -4.6393   13.0793 C   0  0  0  0  0  0  0  0  0  0  0  0
   14.1449   -3.5109   12.9383 C   0  0  2  0  0  0  0  0  0  0  0  0
   14.5476   -2.6041   14.0317 F   0  0  0  0  0  0  0  0  0  0  0  0
   13.5776   -2.8534   11.9032 C   0  0  1  0  0  0  0  0  0  0  0  0
   12.6275   -4.7287   11.2112 C   0  0  0  0  0  0  0  0  0  0  0  0
   13.7576   -1.3419   11.6726 O   0  0  0  0  0  0  0  0  0  0  0  0
   12.8654   -3.4104   10.9110 C   0  0  0  0  0  0  0  0  0  0  0  0
   13.5391   -0.8641   10.4136 C   0  0  0  0  0  0  0  0  0  0  0  0
  1  2  1  0
  2  3  1  0
  1  4  1  0
  4  5  1  0
  5  6  1  1
  6  7  1  0
  3  8  1  0
  5  8  1  0
  7  9  1  0
  3 10  1  0
 11 10  1  1
  9 12  1  0
 11 13  1  0
 13 14  1  0
 14 15  1  1
 14 16  1  0
 11 17  1  0
 16 18  1  6
 16 19  1  0
 17 19  1  0
 18 20  1  0
M  END
$$$$
77
     RDKit          3D

 20 22  0  0  0  0  0  0  0  0999 V2000
   15.5092   -8.6337   10.6790 C   0  0  0  0  0  0  0  0  0  0  0  0
   14.9627   -7.6788   11.2928 C   0  0  0  0  0  0  0  0  0  0  0  0
   13.6347   -7.7839   11.7482 C   0  0  0  0  0  0  0  0  0  0  0  0
   12.9831   -9.0680   11.4975 C   0  0  0  0  0  0  0  0  0  0  0  0
   12.9373   -6.7212   12.4224 O   0  0  0  0  0  0  0  0  0  0  0  0
   11.9346   -6.0298   11.8261 C   0  0  0  0  0  0  0  0  0  0  0  0
   14.8790   -9.8627   10.5069 C   0  0  0  0  0  0  0  0  0  0  0  0
   12.3480   -4.6630   11.5821 C   0  0  0  0  0  0  0  0  0  0  0  0
   11.5682   -9.2670   11.9037 C   0  0  0  0  0  0  0  0  0  0  0  0
   13.6771  -10.1108   10.8637 C   0  0  2  0  0  0  0  0  0  0  0  0
   10.7895   -6.4443   11.6775 O   0  0  0  0  0  0  0  0  0  0  0  0
   10.9811  -10.4218   11.1687 C   0  0  0  0  0  0  0  0  0  0  0  0
   11.8707  -11.4913   10.7353 C   0  0  0  0  0  0  0  0  0  0  0  0
   11.3432   -3.7099   11.1539 C   0  0  0  0  0  0  0  0  0  0  0  0
   13.1524  -11.3014   10.4863 C   0  0  0  0  0  0  0  0  0  0  0  0
   11.8286   -2.4928   10.6120 C   0  0  0  0  0  0  0  0  0  0  0  0
   13.2477   -2.2116   10.8248 C   0  0  0  0  0  0  0  0  0  0  0  0
   14.0864   -3.1571   11.4071 C   0  0  0  0  0  0  0  0  0  0  0  0
   13.7241   -4.3383   11.8089 C   0  0  0  0  0  0  0  0  0  0  0  0
   13.6902   -0.7277   10.2931 Cl  0  0  0  0  0  0  0  0  0  0  0  0
  1  2  1  0
  2  3  1  0
  3  4  1  0
  3  5  1  0
  5  6  1  0
  1  7  1  0
  6  8  1  0
  4  9  1  0
  4 10  1  0
 10  7  1  6
  6 11  2  0
  9 12  1  0
 12 13  1  0
  8 14  1  0
 10 15  1  0
 13 15  1  0
 14 16  1  0
 16 17  1  0
 17 18  1  0
  8 19  1  0
 18 19  1  0
 17 20  1  0
M  END
$$$$
78
     RDKit          3D

 20 22  0  0  0  0  0  0  0  0999 V2000
   13.6823   -9.6804    9.9810 C   0  0  0  0  0  0  0  0  0  0  0  0
   12.6851  -10.1838   10.7540 C   0  0  1  0  0  0  0  0  0  0  0  0
   14.8974   -9.2896   10.8178 C   0  0  0  0  0  0  0  0  0  0  0  0
   14.5641   -8.3549   11.8115 C   0  0  0  0  0  0  0  0  0  0  0  0
   15.6784   -7.8033   12.5979 C   0  0  0  0  0  0  0  0  0  0  0  0
   13.2663   -7.9650   11.9782 C   0  0  2  0  0  0  0  0  0  0  0  0
   12.2288   -8.9352   11.5551 C   0  0  0  0  0  0  0  0  0  0  0  0
   11.6594  -11.0673   10.3265 C   0  0  0  0  0  0  0  0  0  0  0  0
   10.4483  -11.0083   10.6349 C   0  0  0  0  0  0  0  0  0  0  0  0
   15.5966   -6.4263   12.9026 C   0  0  1  0  0  0  0  0  0  0  0  0
    9.4733  -11.9142   10.0762 C   0  0  0  0  0  0  0  0  0  0  0  0
   16.5681   -5.7928   13.4677 C   0  0  0  0  0  0  0  0  0  0  0  0
   14.3601   -5.8125   12.4316 C   0  0  1  0  0  0  0  0  0  0  0  0
   16.4440   -4.3681   13.5927 C   0  0  0  0  0  0  0  0  0  0  0  0
   13.0421   -6.6509   12.4083 C   0  0  1  0  0  0  0  0  0  0  0  0
   15.1756   -3.8622   13.2817 C   0  0  0  0  0  0  0  0  0  0  0  0
   12.0020   -5.8300   11.7951 C   0  0  0  0  0  0  0  0  0  0  0  0
   14.1600   -4.5019   12.7549 C   0  0  0  0  0  0  0  0  0  0  0  0
   10.6282   -6.1133   12.3634 C   0  0  0  0  0  0  0  0  0  0  0  0
   10.3837   -5.5137   13.6296 O   0  0  0  0  0  0  0  0  0  0  0  0
  1  2  1  0
  1  3  1  0
  3  4  1  0
  4  5  1  0
  4  6  1  0
  2  7  1  0
  6  7  1  6
  2  8  1  6
  8  9  1  0
 10  5  1  6
  9 11  1  0
 10 12  1  0
 10 13  1  0
 12 14  1  0
  6 15  1  0
 13 15  1  0
 14 16  1  0
 15 17  1  6
 13 18  1  1
 16 18  1  0
 17 19  1  0
 19 20  1  0
M  END
$$$$
79
     RDKit          3D

 20 23  0  0  0  0  0  0  0  0999 V2000
   14.9280   -4.1139   13.3678 C   0  0  0  0  0  0  0  0  0  0  0  0
   14.0086   -3.2983   12.9215 C   0  0  0  0  0  0  0  0  0  0  0  0
   14.7943   -5.3870   12.9383 C   0  0  0  0  0  0  0  0  0  0  0  0
   13.9710   -5.7685   12.0860 C   0  0  2  0  0  0  0  0  0  0  0  0
   12.9872   -4.9599   11.6379 C   0  0  2  0  0  0  0  0  0  0  0  0
   11.9839   -5.3649   10.6915 O   0  0  0  0  0  0  0  0  0  0  0  0
   13.0084   -3.6513   12.0196 C   0  0  1  0  0  0  0  0  0  0  0  0
   11.8510   -2.8764   11.4497 C   0  0  0  0  0  0  0  0  0  0  0  0
   10.7467   -5.0511   11.1275 C   0  0  0  0  0  0  0  0  0  0  0  0
   14.0176   -7.2881   11.7360 C   0  0  1  0  0  0  0  0  0  0  0  0
   12.9573   -8.0351   11.3873 C   0  0  2  0  0  0  0  0  0  0  0  0
   15.2705   -7.8567   11.3148 C   0  0  0  0  0  0  0  0  0  0  0  0
   10.5664   -3.6155   11.2151 C   0  0  0  0  0  0  0  0  0  0  0  0
   15.2138   -9.2415   10.9853 C   0  0  0  0  0  0  0  0  0  0  0  0
   11.5667   -7.6438   11.7111 O   0  0  0  0  0  0  0  0  0  0  0  0
   13.0601   -9.3998   11.0370 C   0  0  0  0  0  0  0  0  0  0  0  0
   11.7239  -10.1949   10.9481 C   0  0  0  0  0  0  0  0  0  0  0  0
   10.5696   -9.6381   10.7888 C   0  0  0  0  0  0  0  0  0  0  0  0
   14.2513   -9.9721   10.8107 C   0  0  0  0  0  0  0  0  0  0  0  0
   10.5398   -8.4203   11.4736 C   0  0  0  0  0  0  0  0  0  0  0  0
  1  2  1  0
  1  3  1  0
  4  3  1  1
  4  5  1  0
  5  6  1  6
  7  2  1  1
  5  7  1  0
  7  8  1  0
  6  9  1  0
  4 10  1  0
 10 11  1  0
 10 12  1  6
  8 13  1  0
  9 13  1  0
 12 14  1  0
 11 15  1  1
 11 16  1  0
 16 17  1  0
 17 18  1  0
 14 19  1  0
 16 19  1  0
 15 20  1  0
 18 20  1  0
M  END
$$$$
8
     RDKit          3D

 10 10  0  0  0  0  0  0  0  0999 V2000
   15.5092   -8.6337   10.6790 C   0  0  0  0  0  0  0  0  0  0  0  0
   14.9627   -7.6788   11.2928 C   0  0  0  0  0  0  0  0  0  0  0  0
   15.3378   -9.8774   10.9157 C   0  0  0  0  0  0  0  0  0  0  0  0
   13.7690   -7.9245   12.0463 C   0  0  0  0  0  0  0  0  0  0  0  0
   13.9463  -10.1093   11.5975 C   0  0  0  0  0  0  0  0  0  0  0  0
   13.2491   -9.2223   11.9342 C   0  0  0  0  0  0  0  0  0  0  0  0
   12.9775   -6.8098   12.4715 O   0  0  0  0  0  0  0  0  0  0  0  0
   13.3202   -5.4230   12.1901 C   0  0  0  0  0  0  0  0  0  0  0  0
   13.8694   -4.7434   13.1773 C   0  0  0  0  0  0  0  0  0  0  0  0
   14.4428   -3.6499   12.8584 O   0  0  0  0  0  0  0  0  0  0  0  0
  1  2  1  0
  1  3  1  0
  2  4  1  0
  3  5  1  0
  4  6  1  0
  5  6  1  0
  4  7  1  0
  7  8  1  0
  8  9  1  0
  9 10  1  0
M  END
$$$$
80
     RDKit          3D

 21 21  0  0  0  0  0  0  0  0999 V2000
   14.9280   -4.1139   13.3678 C   0  0  0  0  0  0  0  0  0  0  0  0
   14.0086   -3.2983   12.9215 C   0  0  0  0  0  0  0  0  0  0  0  0
   14.7943   -5.3870   12.9383 C   0  0  0  0  0  0  0  0  0  0  0  0
   13.9710   -5.7685   12.0860 C   0  0  0  0  0  0  0  0  0  0  0  0
   12.9872   -4.9599   11.6379 C   0  0  2  0  0  0  0  0  0  0  0  0
   11.9839   -5.3649   10.6915 O   0  0  0  0  0  0  0  0  0  0  0  0
   13.0084   -3.6513   12.0196 C   0  0  1  0  0  0  0  0  0  0  0  0
   11.8510   -2.8764   11.4497 C   0  0  0  0  0  0  0  0  0  0  0  0
   11.0009   -5.8832   11.4419 C   0  0  0  0  0  0  0  0  0  0  0  0
   11.6873   -2.8322   10.1627 O   0  0  0  0  0  0  0  0  0  0  0  0
   10.9410   -7.2004   11.8613 C   0  0  0  0  0  0  0  0  0  0  0  0
   12.2749   -1.5733    9.6878 C   0  0  0  0  0  0  0  0  0  0  0  0
   11.3724   -0.9207    9.0049 F   0  0  0  0  0  0  0  0  0  0  0  0
   10.8758   -8.1016   10.8421 C   0  0  0  0  0  0  0  0  0  0  0  0
   13.3668   -1.7905    9.2392 F   0  0  0  0  0  0  0  0  0  0  0  0
   10.0055   -5.0815   12.1218 O   0  0  0  0  0  0  0  0  0  0  0  0
   12.8461   -0.6034   10.6252 F   0  0  0  0  0  0  0  0  0  0  0  0
   11.1785   -9.5414   11.2308 C   0  0  0  0  0  0  0  0  0  0  0  0
   12.0898  -10.1732   10.2447 C   0  0  0  0  0  0  0  0  0  0  0  0
   13.0376  -11.2493   10.9540 C   0  0  0  0  0  0  0  0  0  0  0  0
   13.7633  -10.5500   12.1978 C   0  0  0  0  0  0  0  0  0  0  0  0
  1  2  1  0
  1  3  1  0
  3  4  1  0
  4  5  1  0
  5  6  1  6
  2  7  1  0
  5  7  1  0
  7  8  1  1
  6  9  1  0
  8 10  1  0
  9 11  1  0
 10 12  1  0
 12 13  1  0
 11 14  1  0
 12 15  1  0
  9 16  2  0
 12 17  1  0
 14 18  1  0
 18 19  1  0
 19 20  1  0
 20 21  1  0
M  END
$$$$
81
     RDKit          3D

 21 22  0  0  0  0  0  0  0  0999 V2000
   15.3488   -9.2018   10.6653 C   0  0  0  0  0  0  0  0  0  0  0  0
   14.1677   -9.7313   10.8434 C   0  0  0  0  0  0  0  0  0  0  0  0
   15.6852   -7.9593   11.1709 C   0  0  1  0  0  0  0  0  0  0  0  0
   13.0789   -8.9874   11.4644 C   0  0  0  0  0  0  0  0  0  0  0  0
   11.8263   -9.6296   11.7076 C   0  0  0  0  0  0  0  0  0  0  0  0
   10.6689   -9.1426   11.1389 C   0  0  0  0  0  0  0  0  0  0  0  0
   13.3876   -7.7194   11.7626 C   0  0  1  0  0  0  0  0  0  0  0  0
   16.9396   -7.3861   11.0532 F   0  0  0  0  0  0  0  0  0  0  0  0
   12.3887   -6.8451   12.3283 O   0  0  0  0  0  0  0  0  0  0  0  0
    9.7698  -10.1138   10.4998 C   0  0  0  0  0  0  0  0  0  0  0  0
   10.1220  -10.4446    9.1933 C   0  0  0  0  0  0  0  0  0  0  0  0
   14.7554   -7.0314   11.6332 C   0  0  1  0  0  0  0  0  0  0  0  0
   14.9523   -5.7702   12.1583 C   0  0  0  0  0  0  0  0  0  0  0  0
   13.8204   -4.9492   12.4193 C   0  0  0  0  0  0  0  0  0  0  0  0
   12.4361   -5.5259   12.2982 C   0  0  2  0  0  0  0  0  0  0  0  0
   11.3091   -4.7881   12.4279 C   0  0  2  0  0  0  0  0  0  0  0  0
   10.2845   -5.3250   13.1764 C   0  0  0  0  0  0  0  0  0  0  0  0
   10.7262   -4.4621   11.0702 C   0  0  0  0  0  0  0  0  0  0  0  0
   14.0750   -3.5504   12.8501 C   0  0  0  0  0  0  0  0  0  0  0  0
    9.9702   -3.6070   10.6667 O   0  0  0  0  0  0  0  0  0  0  0  0
   11.5841   -4.8206    9.9766 O   0  0  0  0  0  0  0  0  0  0  0  0
  1  2  1  0
  1  3  1  0
  2  4  1  0
  4  5  1  0
  5  6  1  0
  4  7  1  0
  3  8  1  6
  7  9  1  1
  6 10  1  0
 10 11  1  0
  3 12  1  0
  7 12  1  0
 12 13  1  1
 13 14  1  0
 15  9  1  1
 14 15  1  0
 15 16  1  0
 16 17  1  1
 16 18  1  0
 14 19  1  0
 18 20  2  0
 18 21  1  0
M  END
$$$$
82
     RDKit          3D

 21 22  0  0  0  0  0  0  0  0999 V2000
   13.3447  -11.1179   11.7852 C   0  0  0  0  0  0  0  0  0  0  0  0
   13.6693   -9.8967   11.8978 C   0  0  0  0  0  0  0  0  0  0  0  0
   11.9866  -11.5484   11.2856 C   0  0  0  0  0  0  0  0  0  0  0  0
   11.5848  -12.9187   11.1276 C   0  0  0  0  0  0  0  0  0  0  0  0
   12.7352   -8.8764   11.5316 C   0  0  0  0  0  0  0  0  0  0  0  0
   11.0084  -10.5470   10.9850 C   0  0  0  0  0  0  0  0  0  0  0  0
   11.4844   -9.2525   11.1517 C   0  0  0  0  0  0  0  0  0  0  0  0
   13.1007   -7.5180   11.5815 C   0  0  1  0  0  0  0  0  0  0  0  0
    9.5596  -10.9299   10.4949 C   0  0  0  0  0  0  0  0  0  0  0  0
   14.4828   -7.1551   11.6847 C   0  0  0  0  0  0  0  0  0  0  0  0
   12.3301   -6.3746   11.4652 C   0  0  0  0  0  0  0  0  0  0  0  0
   12.6807   -5.2154   11.7196 C   0  0  2  0  0  0  0  0  0  0  0  0
   14.9702   -5.8644   11.8918 C   0  0  0  0  0  0  0  0  0  0  0  0
    8.6866   -9.9271   10.1881 C   0  0  0  0  0  0  0  0  0  0  0  0
   14.0576   -4.8765   12.0471 C   0  0  1  0  0  0  0  0  0  0  0  0
   14.4723   -3.5346   12.3451 O   0  0  0  0  0  0  0  0  0  0  0  0
   14.7059   -3.3331   13.6713 C   0  0  0  0  0  0  0  0  0  0  0  0
   11.6107   -3.8872   11.8414 C   0  0  0  0  0  0  0  0  0  0  0  0
   10.9187   -3.7499   10.7386 C   0  0  0  0  0  0  0  0  0  0  0  0
    9.6192   -4.3158   10.7552 C   0  0  0  0  0  0  0  0  0  0  0  0
    9.1776   -5.0993   11.9713 C   0  0  0  0  0  0  0  0  0  0  0  0
  1  2  1  0
  1  3  1  0
  3  4  1  0
  2  5  1  0
  3  6  1  0
  5  7  1  0
  6  7  1  0
  8  5  1  6
  6  9  1  0
  8 10  1  0
  8 11  1  0
 11 12  1  0
 10 13  1  0
  9 14  1  0
 12 15  1  0
 13 15  1  0
 15 16  1  6
 16 17  1  0
 12 18  1  1
 18 19  1  0
 19 20  1  0
 20 21  1  0
M  END
$$$$
83
     RDKit          3D

 21 24  0  0  0  0  0  0  0  0999 V2000
   13.3447  -11.1179   11.7852 C   0  0  0  0  0  0  0  0  0  0  0  0
   13.6693   -9.8967   11.8978 C   0  0  0  0  0  0  0  0  0  0  0  0
   11.9866  -11.5484   11.2856 C   0  0  1  0  0  0  0  0  0  0  0  0
   11.5848  -12.9187   11.1276 C   0  0  0  0  0  0  0  0  0  0  0  0
   12.7352   -8.8764   11.5316 C   0  0  2  0  0  0  0  0  0  0  0  0
   11.3664   -9.2443   11.1402 C   0  0  0  0  0  0  0  0  0  0  0  0
   12.8859   -7.4846   11.3051 C   0  0  1  0  0  0  0  0  0  0  0  0
   12.0004   -6.6277   11.5578 O   0  0  0  0  0  0  0  0  0  0  0  0
   12.0850   -5.4644   12.3002 C   0  0  1  0  0  0  0  0  0  0  0  0
   10.4515  -12.9579   10.2661 C   0  0  0  0  0  0  0  0  0  0  0  0
   11.0164  -10.6191   11.0426 C   0  0  1  0  0  0  0  0  0  0  0  0
    9.4971  -11.9442   10.3595 C   0  0  0  0  0  0  0  0  0  0  0  0
    9.9277  -10.5932   10.2368 C   0  0  0  0  0  0  0  0  0  0  0  0
   13.2813   -4.8934   12.1206 C   0  0  2  0  0  0  0  0  0  0  0  0
   14.4387   -5.6242   11.8983 C   0  0  0  0  0  0  0  0  0  0  0  0
   14.3007   -7.0307   11.7593 C   0  0  0  0  0  0  0  0  0  0  0  0
   10.8228   -4.5678   12.0611 C   0  0  1  0  0  0  0  0  0  0  0  0
   13.5357   -3.4134   12.3568 C   0  0  0  0  0  0  0  0  0  0  0  0
   12.2880   -2.6518   12.3305 C   0  0  0  0  0  0  0  0  0  0  0  0
    9.6085   -5.1078   12.4193 C   0  0  0  0  0  0  0  0  0  0  0  0
   11.0170   -3.2183   12.1842 C   0  0  0  0  0  0  0  0  0  0  0  0
  1  2  1  0
  3  1  1  1
  3  4  1  0
  5  2  1  6
  5  6  1  0
  5  7  1  0
  7  8  1  0
  9  8  1  6
  4 10  1  0
  3 11  1  0
 11  6  1  6
 10 12  1  0
 11 13  1  0
 12 13  1  0
  9 14  1  0
 14 15  1  1
  7 16  1  1
 15 16  1  0
  9 17  1  0
 14 18  1  0
 18 19  1  0
 17 20  1  1
 17 21  1  0
 19 21  1  0
M  END
$$$$
84
     RDKit          3D

 21 23  0  0  0  0  0  0  0  0999 V2000
   15.3488   -9.2018   10.6653 C   0  0  0  0  0  0  0  0  0  0  0  0
   14.1677   -9.7313   10.8434 C   0  0  0  0  0  0  0  0  0  0  0  0
   15.6852   -7.9593   11.1709 C   0  0  1  0  0  0  0  0  0  0  0  0
   13.0789   -8.9874   11.4644 C   0  0  0  0  0  0  0  0  0  0  0  0
   11.8263   -9.6296   11.7076 C   0  0  0  0  0  0  0  0  0  0  0  0
   10.6689   -9.1426   11.1389 C   0  0  0  0  0  0  0  0  0  0  0  0
   13.3876   -7.7194   11.7626 C   0  0  1  0  0  0  0  0  0  0  0  0
   16.9396   -7.3861   11.0532 F   0  0  0  0  0  0  0  0  0  0  0  0
   12.3887   -6.8451   12.3283 O   0  0  0  0  0  0  0  0  0  0  0  0
    9.7698  -10.1138   10.4998 C   0  0  0  0  0  0  0  0  0  0  0  0
   10.1220  -10.4446    9.1933 C   0  0  0  0  0  0  0  0  0  0  0  0
   14.7554   -7.0314   11.6332 C   0  0  1  0  0  0  0  0  0  0  0  0
   14.9523   -5.7702   12.1583 C   0  0  0  0  0  0  0  0  0  0  0  0
   13.8204   -4.9492   12.4193 C   0  0  2  0  0  0  0  0  0  0  0  0
   12.4361   -5.5259   12.2982 C   0  0  2  0  0  0  0  0  0  0  0  0
   11.3091   -4.7881   12.4279 C   0  0  1  0  0  0  0  0  0  0  0  0
   14.0991   -3.5522   12.6388 C   0  0  1  0  0  0  0  0  0  0  0  0
   11.3933   -3.3360   12.3095 C   0  0  0  0  0  0  0  0  0  0  0  0
   15.1938   -2.8941   12.7901 O   0  0  0  0  0  0  0  0  0  0  0  0
    9.9252   -5.4175   12.4606 C   0  0  0  0  0  0  0  0  0  0  0  0
   12.7541   -2.7320   12.5209 C   0  0  0  0  0  0  0  0  0  0  0  0
  1  2  1  0
  1  3  1  0
  2  4  1  0
  4  5  1  0
  5  6  1  0
  4  7  1  0
  3  8  1  6
  7  9  1  1
  6 10  1  0
 10 11  1  0
  3 12  1  0
  7 12  1  0
 12 13  1  1
 14 13  1  6
 15  9  1  1
 14 15  1  0
 15 16  1  0
 14 17  1  0
 16 18  1  0
 17 19  1  6
 16 20  1  6
 17 21  1  0
 18 21  1  0
M  END
$$$$
85
     RDKit          3D

 21 23  0  0  0  0  0  0  0  0999 V2000
   13.3447  -11.1179   11.7852 C   0  0  0  0  0  0  0  0  0  0  0  0
   13.6693   -9.8967   11.8978 C   0  0  0  0  0  0  0  0  0  0  0  0
   11.9866  -11.5484   11.2856 C   0  0  1  0  0  0  0  0  0  0  0  0
   11.5848  -12.9187   11.1276 C   0  0  0  0  0  0  0  0  0  0  0  0
   12.7352   -8.8764   11.5316 C   0  0  2  0  0  0  0  0  0  0  0  0
   11.3664   -9.2443   11.1402 C   0  0  0  0  0  0  0  0  0  0  0  0
   12.8859   -7.4846   11.3051 C   0  0  1  0  0  0  0  0  0  0  0  0
   12.0004   -6.6277   11.5578 O   0  0  0  0  0  0  0  0  0  0  0  0
   12.0850   -5.4644   12.3002 C   0  0  1  0  0  0  0  0  0  0  0  0
   10.4515  -12.9579   10.2661 C   0  0  0  0  0  0  0  0  0  0  0  0
   11.0164  -10.6191   11.0426 C   0  0  1  0  0  0  0  0  0  0  0  0
    9.4971  -11.9442   10.3595 C   0  0  0  0  0  0  0  0  0  0  0  0
    9.9277  -10.5932   10.2368 C   0  0  0  0  0  0  0  0  0  0  0  0
   13.2813   -4.8934   12.1206 C   0  0  2  0  0  0  0  0  0  0  0  0
   14.4387   -5.6242   11.8983 C   0  0  0  0  0  0  0  0  0  0  0  0
   13.4856   -3.4032   12.3962 C   0  0  0  0  0  0  0  0  0  0  0  0
   14.3091   -6.9440   11.5102 C   0  0  0  0  0  0  0  0  0  0  0  0
   14.5346   -2.9900   13.1189 O   0  0  0  0  0  0  0  0  0  0  0  0
   10.7806   -4.7483   12.3290 C   0  0  0  0  0  0  0  0  0  0  0  0
   12.4120   -2.6852   12.1632 O   0  0  0  0  0  0  0  0  0  0  0  0
    9.7135   -5.7094   12.7127 C   0  0  0  0  0  0  0  0  0  0  0  0
  1  2  1  0
  3  1  1  1
  3  4  1  0
  5  2  1  6
  5  6  1  0
  5  7  1  0
  7  8  1  0
  8  9  1  0
  4 10  1  0
  3 11  1  0
 11  6  1  6
 10 12  1  0
 11 13  1  0
 12 13  1  0
  9 14  1  0
 14 15  1  0
 14 16  1  1
  7 17  1  1
 15 17  1  0
 16 18  1  0
  9 19  1  6
 16 20  2  0
 19 21  1  0
M  END
$$$$
86
     RDKit          3D

 21 22  0  0  0  0  0  0  0  0999 V2000
   15.3488   -9.2018   10.6653 C   0  0  0  0  0  0  0  0  0  0  0  0
   14.1677   -9.7313   10.8434 C   0  0  0  0  0  0  0  0  0  0  0  0
   15.6852   -7.9593   11.1709 C   0  0  0  0  0  0  0  0  0  0  0  0
   13.0789   -8.9874   11.4644 C   0  0  1  0  0  0  0  0  0  0  0  0
   11.8263   -9.6296   11.7076 C   0  0  0  0  0  0  0  0  0  0  0  0
   10.6689   -9.1426   11.1389 C   0  0  1  0  0  0  0  0  0  0  0  0
   13.5448   -7.6817   11.8059 C   0  0  0  0  0  0  0  0  0  0  0  0
   14.7615   -7.1859   11.7316 C   0  0  0  0  0  0  0  0  0  0  0  0
   15.0427   -5.8805   12.1714 C   0  0  0  0  0  0  0  0  0  0  0  0
   10.3087   -7.8445   11.1467 C   0  0  0  0  0  0  0  0  0  0  0  0
   16.0960   -5.5785   12.9473 O   0  0  0  0  0  0  0  0  0  0  0  0
   14.3254   -4.7984   11.7608 N   0  0  0  0  0  0  0  0  0  0  0  0
   10.5350   -9.7841    9.6954 C   0  0  0  0  0  0  0  0  0  0  0  0
   14.3818   -3.4943   12.4307 C   0  0  0  0  0  0  0  0  0  0  0  0
   13.1019   -3.0223   12.7826 C   0  0  0  0  0  0  0  0  0  0  0  0
   10.1981  -11.2302    9.7672 C   0  0  0  0  0  0  0  0  0  0  0  0
   12.1719   -4.1237   12.5814 C   0  0  0  0  0  0  0  0  0  0  0  0
   10.0525   -7.4155   12.5180 C   0  0  0  0  0  0  0  0  0  0  0  0
   10.9673   -3.8074   11.7588 C   0  0  0  0  0  0  0  0  0  0  0  0
   10.1070   -5.9236   12.7667 C   0  0  0  0  0  0  0  0  0  0  0  0
   10.0873   -5.0310   11.6221 C   0  0  0  0  0  0  0  0  0  0  0  0
  1  2  1  0
  1  3  1  0
  4  2  1  1
  4  5  1  0
  5  6  1  0
  4  7  1  0
  3  8  1  0
  7  8  1  0
  8  9  1  0
  6 10  1  0
  9 11  2  0
  9 12  1  0
  6 13  1  6
 12 14  1  0
 14 15  1  0
 13 16  1  0
 15 17  1  0
 10 18  1  0
 17 19  1  0
 18 20  1  0
 19 21  1  0
 20 21  1  0
M  END
$$$$
87
     RDKit          3D

 21 23  0  0  0  0  0  0  0  0999 V2000
   10.4674   -7.7804    2.9846 C   0  0  0  0  0  0  0  0  0  0  0  0
   10.6420   -6.8021    2.2153 C   0  0  1  0  0  0  0  0  0  0  0  0
   11.0077   -6.8551    0.9108 C   0  0  0  0  0  0  0  0  0  0  0  0
    9.7184   -7.6008    4.2432 C   0  0  0  0  0  0  0  0  0  0  0  0
   10.0401   -5.5165    2.8112 C   0  0  0  0  0  0  0  0  0  0  0  0
    9.3323   -6.4507    4.7351 C   0  0  1  0  0  0  0  0  0  0  0  0
    8.7831   -6.3267    6.0576 C   0  0  2  0  0  0  0  0  0  0  0  0
    8.2110   -7.3164    6.6956 C   0  0  0  0  0  0  0  0  0  0  0  0
    7.7149   -7.2141    7.8381 C   0  0  0  0  0  0  0  0  0  0  0  0
    8.3763   -4.9006    6.2979 C   0  0  0  0  0  0  0  0  0  0  0  0
    9.5824   -5.2974    3.9549 C   0  0  1  0  0  0  0  0  0  0  0  0
    9.2978   -3.8855    5.9688 C   0  0  2  0  0  0  0  0  0  0  0  0
    9.7987   -4.0677    4.6429 C   0  0  0  0  0  0  0  0  0  0  0  0
    9.9341   -3.1260    6.9024 C   0  0  0  0  0  0  0  0  0  0  0  0
   11.5832   -5.8471    0.3687 O   0  0  0  0  0  0  0  0  0  0  0  0
   11.0538   -8.0457    0.3020 O   0  0  0  0  0  0  0  0  0  0  0  0
    9.3585   -2.1379    7.5051 C   0  0  0  0  0  0  0  0  0  0  0  0
   11.3582   -3.2089    7.2374 C   0  0  0  0  0  0  0  0  0  0  0  0
   11.7121   -2.7254    8.5332 C   0  0  0  0  0  0  0  0  0  0  0  0
    9.8836   -1.3962    8.5363 C   0  0  0  0  0  0  0  0  0  0  0  0
   11.0605   -1.7092    9.0438 C   0  0  0  0  0  0  0  0  0  0  0  0
  1  2  1  0
  2  3  1  6
  1  4  1  0
  2  5  1  0
  6  4  1  1
  6  7  1  0
  7  8  1  6
  8  9  1  0
  7 10  1  0
 11  5  1  1
  6 11  1  0
 10 12  1  0
 11 13  1  0
 12 13  1  0
 12 14  1  1
  3 15  2  0
  3 16  1  0
 14 17  1  0
 14 18  1  0
 18 19  1  0
 17 20  1  0
 19 21  1  0
 20 21  1  0
M  END
$$$$
88
     RDKit          3D

 21 22  0  0  0  0  0  0  0  0999 V2000
   13.3643   -1.3070   10.1055 C   0  0  0  0  0  0  0  0  0  0  0  0
   13.1510   -2.4233   10.7006 C   0  0  0  0  0  0  0  0  0  0  0  0
   12.1656   -3.4017   10.5073 C   0  0  1  0  0  0  0  0  0  0  0  0
   11.1938   -3.0569    9.4693 C   0  0  0  0  0  0  0  0  0  0  0  0
   12.2969   -0.9729    9.1347 C   0  0  0  0  0  0  0  0  0  0  0  0
   12.3897    0.2803    8.4441 O   0  0  0  0  0  0  0  0  0  0  0  0
   11.2580   -1.7667    8.9031 C   0  0  1  0  0  0  0  0  0  0  0  0
   12.1382   -4.8092   11.2223 C   0  0  2  0  0  0  0  0  0  0  0  0
   10.8844   -5.1825   11.6221 C   0  0  1  0  0  0  0  0  0  0  0  0
   13.3187   -5.3500   11.5187 C   0  0  2  0  0  0  0  0  0  0  0  0
   10.9408   -6.4540   12.3614 C   0  0  0  0  0  0  0  0  0  0  0  0
    9.7539   -4.5119   11.7505 F   0  0  0  0  0  0  0  0  0  0  0  0
   12.0722   -7.1686   12.4822 C   0  0  0  0  0  0  0  0  0  0  0  0
   14.5680   -4.7899   11.0298 F   0  0  0  0  0  0  0  0  0  0  0  0
   12.0022   -8.4557   12.9215 F   0  0  0  0  0  0  0  0  0  0  0  0
   13.3938   -6.5542   12.1605 C   0  0  1  0  0  0  0  0  0  0  0  0
   10.2599   -1.4107    7.8460 C   0  0  0  0  0  0  0  0  0  0  0  0
   14.8098   -7.2986   12.4095 Cl  0  0  0  0  0  0  0  0  0  0  0  0
   10.3299   -1.9483    6.5344 C   0  0  0  0  0  0  0  0  0  0  0  0
    9.2447   -1.8264    5.7751 O   0  0  0  0  0  0  0  0  0  0  0  0
   11.4654   -2.3419    6.1246 O   0  0  0  0  0  0  0  0  0  0  0  0
  1  2  1  0
  3  2  1  6
  3  4  1  0
  1  5  1  0
  5  6  1  0
  4  7  1  0
  5  7  1  0
  8  3  1  1
  8  9  1  0
  8 10  1  0
  9 11  1  0
  9 12  1  1
 11 13  1  0
 10 14  1  6
 13 15  1  0
 10 16  1  0
 13 16  1  0
  7 17  1  6
 16 18  1  6
 17 19  1  0
 19 20  2  0
 19 21  1  0
M  END
$$$$
89
     RDKit          3D

 21 23  0  0  0  0  0  0  0  0999 V2000
   13.3447  -11.1179   11.7852 C   0  0  0  0  0  0  0  0  0  0  0  0
   13.6693   -9.8967   11.8978 C   0  0  0  0  0  0  0  0  0  0  0  0
   11.9866  -11.5484   11.2856 C   0  0  0  0  0  0  0  0  0  0  0  0
   11.5848  -12.9187   11.1276 C   0  0  0  0  0  0  0  0  0  0  0  0
   12.7352   -8.8764   11.5316 C   0  0  1  0  0  0  0  0  0  0  0  0
   11.0084  -10.5470   10.9850 C   0  0  0  0  0  0  0  0  0  0  0  0
   11.4844   -9.2525   11.1517 C   0  0  0  0  0  0  0  0  0  0  0  0
    9.7115  -10.9772   10.5505 C   0  0  0  0  0  0  0  0  0  0  0  0
   13.1194   -7.4098   11.6770 C   0  0  2  0  0  0  0  0  0  0  0  0
   14.4801   -7.0855   11.5426 C   0  0  1  0  0  0  0  0  0  0  0  0
   12.4182   -6.4538   12.2298 C   0  0  0  0  0  0  0  0  0  0  0  0
   15.5075   -8.0658   10.9767 O   0  0  0  0  0  0  0  0  0  0  0  0
   12.7925   -5.1799   12.4636 C   0  0  0  0  0  0  0  0  0  0  0  0
    8.7462   -9.9188   10.2019 C   0  0  0  0  0  0  0  0  0  0  0  0
   16.7459   -8.0953   11.5383 C   0  0  0  0  0  0  0  0  0  0  0  0
   11.8361   -4.1355   13.0101 C   0  0  0  0  0  0  0  0  0  0  0  0
   11.9693   -2.8965   12.3325 C   0  0  0  0  0  0  0  0  0  0  0  0
   14.1456   -4.7413   12.2212 C   0  0  1  0  0  0  0  0  0  0  0  0
   14.7243   -3.4810   12.5055 C   0  0  0  0  0  0  0  0  0  0  0  0
   13.5913   -2.4062   12.1874 C   0  0  0  0  0  0  0  0  0  0  0  0
   15.0431   -5.7916   11.7621 C   0  0  0  0  0  0  0  0  0  0  0  0
  1  2  1  0
  1  3  1  0
  3  4  1  0
  5  2  1  1
  3  6  1  0
  5  7  1  0
  6  7  1  0
  6  8  1  0
  5  9  1  0
  9 10  1  0
  9 11  1  1
 10 12  1  6
 11 13  1  0
  8 14  1  0
 12 15  1  0
 13 16  1  0
 16 17  1  0
 13 18  1  0
 18 19  1  1
 17 20  1  0
 19 20  1  0
 10 21  1  0
 18 21  1  0
M  END
$$$$
9
     RDKit          3D

 10 10  0  0  0  0  0  0  0  0999 V2000
   13.6823   -9.6804    9.9810 C   0  0  0  0  0  0  0  0  0  0  0  0
   12.6851  -10.1838   10.7540 C   0  0  1  0  0  0  0  0  0  0  0  0
   12.3598   -9.5258   11.9737 C   0  0  0  0  0  0  0  0  0  0  0  0
   14.8666   -9.2456   10.6777 C   0  0  1  0  0  0  0  0  0  0  0  0
   13.4501   -8.7905   12.5879 C   0  0  0  0  0  0  0  0  0  0  0  0
   16.0721   -8.9507   10.0389 F   0  0  0  0  0  0  0  0  0  0  0  0
   14.6544   -8.6164   11.9192 C   0  0  0  0  0  0  0  0  0  0  0  0
   11.4859  -11.1041    9.9156 C   0  0  0  0  0  0  0  0  0  0  0  0
   10.3114  -11.1063   10.6798 C   0  0  0  0  0  0  0  0  0  0  0  0
    9.1227  -10.3545   10.1060 C   0  0  0  0  0  0  0  0  0  0  0  0
  1  2  1  0
  2  3  1  0
  1  4  1  0
  3  5  1  0
  4  6  1  6
  4  7  1  0
  5  7  1  0
  2  8  1  6
  8  9  1  0
  9 10  1  0
M  END
$$$$
90
     RDKit          3D

 21 23  0  0  0  0  0  0  0  0999 V2000
   13.6823   -9.6804    9.9810 C   0  0  0  0  0  0  0  0  0  0  0  0
   12.6851  -10.1838   10.7540 C   0  0  1  0  0  0  0  0  0  0  0  0
   14.8974   -9.2896   10.8178 C   0  0  0  0  0  0  0  0  0  0  0  0
   14.5641   -8.3549   11.8115 C   0  0  0  0  0  0  0  0  0  0  0  0
   15.6784   -7.8033   12.5979 C   0  0  0  0  0  0  0  0  0  0  0  0
   13.2663   -7.9650   11.9782 C   0  0  2  0  0  0  0  0  0  0  0  0
   12.2288   -8.9352   11.5551 C   0  0  0  0  0  0  0  0  0  0  0  0
   11.6594  -11.0673   10.3265 C   0  0  0  0  0  0  0  0  0  0  0  0
   10.4483  -11.0083   10.6349 C   0  0  0  0  0  0  0  0  0  0  0  0
   15.5966   -6.4263   12.9026 C   0  0  1  0  0  0  0  0  0  0  0  0
    9.4733  -11.9142   10.0762 C   0  0  0  0  0  0  0  0  0  0  0  0
   16.5681   -5.7928   13.4677 C   0  0  0  0  0  0  0  0  0  0  0  0
   14.3601   -5.8125   12.4316 C   0  0  1  0  0  0  0  0  0  0  0  0
   16.4440   -4.3681   13.5927 C   0  0  0  0  0  0  0  0  0  0  0  0
   13.0421   -6.6509   12.4083 C   0  0  1  0  0  0  0  0  0  0  0  0
   15.1756   -3.8622   13.2817 C   0  0  1  0  0  0  0  0  0  0  0  0
   12.0020   -5.8300   11.7951 C   0  0  0  0  0  0  0  0  0  0  0  0
   14.9463   -2.5595   13.3313 O   0  0  0  0  0  0  0  0  0  0  0  0
   14.1393   -4.5409   12.7548 C   0  0  0  0  0  0  0  0  0  0  0  0
   10.6148   -6.1865   12.2277 C   0  0  0  0  0  0  0  0  0  0  0  0
    9.8827   -5.0629   12.8280 C   0  0  0  0  0  0  0  0  0  0  0  0
  1  2  1  0
  1  3  1  0
  3  4  1  0
  4  5  1  0
  4  6  1  0
  2  7  1  0
  6  7  1  6
  2  8  1  6
  8  9  1  0
 10  5  1  6
  9 11  1  0
 10 12  1  0
 10 13  1  0
 12 14  1  0
  6 15  1  0
 13 15  1  0
 14 16  1  0
 15 17  1  6
 16 18  1  6
 13 19  1  1
 16 19  1  0
 17 20  1  0
 20 21  1  0
M  END
$$$$
91
     RDKit          3D

 22 24  0  0  0  0  0  0  0  0999 V2000
   15.5092   -8.6337   10.6790 C   0  0  1  0  0  0  0  0  0  0  0  0
   14.9627   -7.6788   11.2928 C   0  0  1  0  0  0  0  0  0  0  0  0
   13.6347   -7.7839   11.7482 C   0  0  2  0  0  0  0  0  0  0  0  0
   12.9831   -9.0680   11.4975 C   0  0  1  0  0  0  0  0  0  0  0  0
   12.8896   -6.7092   12.1891 N   0  0  0  0  0  0  0  0  0  0  0  0
   15.6851   -6.3829   11.7068 C   0  0  0  0  0  0  0  0  0  0  0  0
   11.5641   -9.2494   11.8633 C   0  0  0  0  0  0  0  0  0  0  0  0
   16.9674   -8.6286   10.3294 F   0  0  0  0  0  0  0  0  0  0  0  0
   13.6299   -9.9819   10.5427 C   0  0  0  0  0  0  0  0  0  0  0  0
   14.9580   -9.8478   10.2832 C   0  0  0  0  0  0  0  0  0  0  0  0
   10.8205  -10.3224   10.9813 C   0  0  0  0  0  0  0  0  0  0  0  0
   11.6448   -6.5495   12.3596 O   0  0  0  0  0  0  0  0  0  0  0  0
    9.7306   -9.9730   10.2262 C   0  0  0  0  0  0  0  0  0  0  0  0
   13.5821   -5.3808   12.1941 C   0  0  2  0  0  0  0  0  0  0  0  0
   14.9850   -5.3718   12.1131 C   0  0  0  0  0  0  0  0  0  0  0  0
    8.9850  -10.9727    9.5707 C   0  0  0  0  0  0  0  0  0  0  0  0
   10.9793   -5.3507   12.0685 C   0  0  0  0  0  0  0  0  0  0  0  0
   12.6390   -4.3620   12.5425 C   0  0  2  0  0  0  0  0  0  0  0  0
   11.3789   -4.2818   12.4244 C   0  0  1  0  0  0  0  0  0  0  0  0
   13.4282   -3.0312   12.2289 C   0  0  0  0  0  0  0  0  0  0  0  0
   10.5606   -3.2508   12.4954 O   0  0  0  0  0  0  0  0  0  0  0  0
   14.3822   -2.7293   11.5001 O   0  0  0  0  0  0  0  0  0  0  0  0
  1  2  1  0
  2  3  1  0
  3  4  1  0
  3  5  1  6
  2  6  1  1
  4  7  1  6
  1  8  1  1
  4  9  1  0
  1 10  1  0
  9 10  1  0
  7 11  1  0
  5 12  1  0
 11 13  1  0
  5 14  1  0
  6 15  1  0
 14 15  1  1
 13 16  1  0
 12 17  1  0
 14 18  1  0
 17 19  1  0
 18 19  1  0
 18 20  1  6
 19 21  1  6
 20 22  2  0
M  END
$$$$
92
     RDKit          3D

 22 24  0  0  0  0  0  0  0  0999 V2000
   15.5092   -8.6337   10.6790 C   0  0  1  0  0  0  0  0  0  0  0  0
   14.9627   -7.6788   11.2928 C   0  0  1  0  0  0  0  0  0  0  0  0
   13.6347   -7.7839   11.7482 C   0  0  2  0  0  0  0  0  0  0  0  0
   12.9831   -9.0680   11.4975 C   0  0  1  0  0  0  0  0  0  0  0  0
   12.8896   -6.7092   12.1891 N   0  0  0  0  0  0  0  0  0  0  0  0
   15.6851   -6.3829   11.7068 C   0  0  0  0  0  0  0  0  0  0  0  0
   11.5641   -9.2494   11.8633 C   0  0  0  0  0  0  0  0  0  0  0  0
   16.9674   -8.6286   10.3294 F   0  0  0  0  0  0  0  0  0  0  0  0
   13.6299   -9.9819   10.5427 C   0  0  0  0  0  0  0  0  0  0  0  0
   14.9580   -9.8478   10.2832 C   0  0  0  0  0  0  0  0  0  0  0  0
   10.8205  -10.3224   10.9813 C   0  0  0  0  0  0  0  0  0  0  0  0
   11.6448   -6.5495   12.3596 O   0  0  0  0  0  0  0  0  0  0  0  0
    9.7306   -9.9730   10.2262 C   0  0  0  0  0  0  0  0  0  0  0  0
   13.5821   -5.3808   12.1941 C   0  0  2  0  0  0  0  0  0  0  0  0
   14.9850   -5.3718   12.1131 C   0  0  0  0  0  0  0  0  0  0  0  0
    8.9850  -10.9727    9.5707 C   0  0  0  0  0  0  0  0  0  0  0  0
   10.9793   -5.3507   12.0685 C   0  0  0  0  0  0  0  0  0  0  0  0
   12.6390   -4.3620   12.5425 C   0  0  2  0  0  0  0  0  0  0  0  0
   11.3789   -4.2818   12.4244 C   0  0  1  0  0  0  0  0  0  0  0  0
   13.4544   -2.9995   12.8715 C   0  0  0  0  0  0  0  0  0  0  0  0
   10.5780   -3.2122   12.4067 O   0  0  0  0  0  0  0  0  0  0  0  0
   14.2575   -2.3839   11.9391 O   0  0  0  0  0  0  0  0  0  0  0  0
  1  2  1  0
  2  3  1  0
  3  4  1  0
  3  5  1  6
  2  6  1  1
  4  7  1  6
  1  8  1  1
  4  9  1  0
  1 10  1  0
  9 10  1  0
  7 11  1  0
  5 12  1  0
 11 13  1  0
  5 14  1  0
  6 15  1  0
 14 15  1  1
 13 16  1  0
 12 17  1  0
 14 18  1  0
 17 19  1  0
 18 19  1  0
 18 20  1  6
 19 21  1  6
 20 22  1  0
M  END
$$$$
93
     RDKit          3D

 22 24  0  0  0  0  0  0  0  0999 V2000
   10.4674   -7.7804    2.9846 C   0  0  0  0  0  0  0  0  0  0  0  0
   10.6420   -6.8021    2.2153 C   0  0  1  0  0  0  0  0  0  0  0  0
   11.0077   -6.8551    0.9108 C   0  0  0  0  0  0  0  0  0  0  0  0
    9.7184   -7.6008    4.2432 C   0  0  0  0  0  0  0  0  0  0  0  0
   10.0401   -5.5165    2.8112 C   0  0  0  0  0  0  0  0  0  0  0  0
    9.3323   -6.4507    4.7351 C   0  0  1  0  0  0  0  0  0  0  0  0
    8.7831   -6.3267    6.0576 C   0  0  2  0  0  0  0  0  0  0  0  0
    8.2110   -7.3164    6.6956 C   0  0  0  0  0  0  0  0  0  0  0  0
    7.7149   -7.2141    7.8381 C   0  0  0  0  0  0  0  0  0  0  0  0
    8.3763   -4.9006    6.2979 C   0  0  0  0  0  0  0  0  0  0  0  0
    9.5824   -5.2974    3.9549 C   0  0  1  0  0  0  0  0  0  0  0  0
    9.2978   -3.8855    5.9688 C   0  0  2  0  0  0  0  0  0  0  0  0
    9.7987   -4.0677    4.6429 C   0  0  0  0  0  0  0  0  0  0  0  0
    9.9341   -3.1260    6.9024 C   0  0  2  0  0  0  0  0  0  0  0  0
   11.5832   -5.8471    0.3687 O   0  0  0  0  0  0  0  0  0  0  0  0
   11.0538   -8.0457    0.3020 O   0  0  0  0  0  0  0  0  0  0  0  0
    9.3585   -2.1379    7.5051 C   0  0  2  0  0  0  0  0  0  0  0  0
   11.3582   -3.2089    7.2374 C   0  0  0  0  0  0  0  0  0  0  0  0
   11.7121   -2.7254    8.5332 C   0  0  0  0  0  0  0  0  0  0  0  0
   11.0545   -1.7065    9.0672 C   0  0  0  0  0  0  0  0  0  0  0  0
    7.9994   -1.6716    6.8740 O   0  0  0  0  0  0  0  0  0  0  0  0
    9.8356   -1.4126    8.5771 C   0  0  0  0  0  0  0  0  0  0  0  0
  1  2  1  0
  2  3  1  6
  1  4  1  0
  2  5  1  0
  6  4  1  1
  6  7  1  0
  7  8  1  6
  8  9  1  0
  7 10  1  0
 11  5  1  1
  6 11  1  0
 12 10  1  1
 11 13  1  0
 12 13  1  0
 12 14  1  0
  3 15  2  0
  3 16  1  0
 14 17  1  0
 14 18  1  6
 18 19  1  0
 19 20  1  0
 17 21  1  6
 17 22  1  0
 20 22  1  0
M  END
$$$$
94
     RDKit          3D

 22 23  0  0  0  0  0  0  0  0999 V2000
   15.5092   -8.6337   10.6790 C   0  0  0  0  0  0  0  0  0  0  0  0
   14.9627   -7.6788   11.2928 C   0  0  0  0  0  0  0  0  0  0  0  0
   15.3378   -9.8774   10.9157 C   0  0  0  0  0  0  0  0  0  0  0  0
   13.7690   -7.9245   12.0463 C   0  0  1  0  0  0  0  0  0  0  0  0
   13.9463  -10.1093   11.5975 C   0  0  0  0  0  0  0  0  0  0  0  0
   12.9932   -6.8363   12.5387 O   0  0  0  0  0  0  0  0  0  0  0  0
   13.4766  -11.5168   11.5859 C   0  0  0  0  0  0  0  0  0  0  0  0
   12.6246   -5.6673   11.7008 C   0  0  0  0  0  0  0  0  0  0  0  0
   11.2972   -5.5139   11.5827 C   0  0  0  0  0  0  0  0  0  0  0  0
   10.7422   -4.3858   11.0718 C   0  0  1  0  0  0  0  0  0  0  0  0
   13.2344   -9.1218   12.1826 C   0  0  0  0  0  0  0  0  0  0  0  0
   13.5412   -4.9401   11.1990 C   0  0  0  0  0  0  0  0  0  0  0  0
   11.9832  -11.6677   11.3787 C   0  0  0  0  0  0  0  0  0  0  0  0
   13.0616   -3.6674   10.7654 C   0  0  1  0  0  0  0  0  0  0  0  0
   13.9352   -2.7559   10.0910 O   0  0  0  0  0  0  0  0  0  0  0  0
    9.3548   -4.1591   11.0105 F   0  0  0  0  0  0  0  0  0  0  0  0
   13.9650   -1.6020   10.7794 C   0  0  0  0  0  0  0  0  0  0  0  0
   11.2346  -10.9785   10.4072 C   0  0  0  0  0  0  0  0  0  0  0  0
   11.6661   -3.3019   10.6500 C   0  0  0  0  0  0  0  0  0  0  0  0
    9.8755  -11.2859   10.2928 C   0  0  0  0  0  0  0  0  0  0  0  0
    9.1191  -10.6982    9.2328 C   0  0  0  0  0  0  0  0  0  0  0  0
    8.6244   -9.3350    9.4681 C   0  0  0  0  0  0  0  0  0  0  0  0
  1  2  1  0
  1  3  1  0
  2  4  1  0
  3  5  1  0
  4  6  1  6
  5  7  1  0
  6  8  1  0
  8  9  1  0
  9 10  1  0
  4 11  1  0
  5 11  1  0
  8 12  1  0
  7 13  1  0
 12 14  1  0
 14 15  1  6
 10 16  1  1
 15 17  1  0
 13 18  1  0
 10 19  1  0
 14 19  1  0
 18 20  1  0
 20 21  1  0
 21 22  1  0
M  END
$$$$
95
     RDKit          3D

 22 24  0  0  0  0  0  0  0  0999 V2000
   10.4951   -5.3695    3.7330 C   0  0  2  0  0  0  0  0  0  0  0  0
    9.9191   -4.9512    4.6839 C   0  0  1  0  0  0  0  0  0  0  0  0
    9.1260   -5.6165    5.6197 C   0  0  0  0  0  0  0  0  0  0  0  0
   11.2021   -4.6630    2.7031 C   0  0  0  0  0  0  0  0  0  0  0  0
   10.3865   -3.5107    4.7818 C   0  0  0  0  0  0  0  0  0  0  0  0
   11.4698   -3.3689    3.0742 C   0  0  0  0  0  0  0  0  0  0  0  0
   10.1574   -6.9243    3.2915 C   0  0  0  0  0  0  0  0  0  0  0  0
    9.2491   -7.5387    4.2060 C   0  0  0  0  0  0  0  0  0  0  0  0
   11.0269   -2.7998    4.1265 C   0  0  0  0  0  0  0  0  0  0  0  0
    8.7079   -6.8796    5.2988 C   0  0  0  0  0  0  0  0  0  0  0  0
    9.7793   -2.8267    6.1767 C   0  0  0  0  0  0  0  0  0  0  0  0
    8.7530   -2.0754    6.0998 O   0  0  0  0  0  0  0  0  0  0  0  0
   10.5766   -2.6948    7.3576 N   0  0  0  0  0  0  0  0  0  0  0  0
   10.1779   -1.8858    8.4587 C   0  0  2  0  0  0  0  0  0  0  0  0
   11.0094   -0.8356    8.6812 C   0  0  0  0  0  0  0  0  0  0  0  0
    9.5594   -2.7186    9.4985 C   0  0  0  0  0  0  0  0  0  0  0  0
   10.7000   -3.1926   10.3388 C   0  0  0  0  0  0  0  0  0  0  0  0
   11.7052   -1.2124    9.8380 C   0  0  0  0  0  0  0  0  0  0  0  0
   11.6375   -2.1891   10.6938 C   0  0  2  0  0  0  0  0  0  0  0  0
   12.5881   -2.4075   11.7701 C   0  0  0  0  0  0  0  0  0  0  0  0
   13.9344   -2.1819   11.5950 O   0  0  0  0  0  0  0  0  0  0  0  0
   12.2911   -3.2201   12.7657 O   0  0  0  0  0  0  0  0  0  0  0  0
  1  2  1  0
  2  3  1  1
  1  4  1  6
  2  5  1  0
  4  6  1  0
  1  7  1  0
  7  8  1  0
  5  9  1  0
  6  9  1  0
  3 10  1  0
  8 10  1  0
  5 11  1  0
 11 12  2  0
 11 13  1  0
 14 13  1  6
 14 15  1  0
 14 16  1  0
 16 17  1  0
 15 18  1  0
 17 19  1  0
 18 19  1  0
 19 20  1  6
 20 21  1  0
 20 22  2  0
M  END
$$$$
96
     RDKit          3D

 22 23  0  0  0  0  0  0  0  0999 V2000
   10.1069   -5.1537   13.2960 C   0  0  0  0  0  0  0  0  0  0  0  0
   11.2078   -4.9937   12.5868 C   0  0  2  0  0  0  0  0  0  0  0  0
   12.3302   -5.6443   12.8811 O   0  0  0  0  0  0  0  0  0  0  0  0
   13.5031   -5.3552   12.0500 C   0  0  1  0  0  0  0  0  0  0  0  0
   11.3337   -4.1068   11.6133 C   0  0  0  0  0  0  0  0  0  0  0  0
   13.5835   -4.4025   11.2551 C   0  0  0  0  0  0  0  0  0  0  0  0
    9.8557   -6.3311   13.9548 F   0  0  0  0  0  0  0  0  0  0  0  0
    9.4347   -4.2879   13.8313 F   0  0  0  0  0  0  0  0  0  0  0  0
   12.3929   -3.6895   11.0256 C   0  0  1  0  0  0  0  0  0  0  0  0
   14.7095   -6.3097   12.3001 C   0  0  0  0  0  0  0  0  0  0  0  0
   15.7451   -5.9816   12.7829 O   0  0  0  0  0  0  0  0  0  0  0  0
   14.6556   -7.5467   11.5910 N   0  0  0  0  0  0  0  0  0  0  0  0
   15.7662   -8.4941   11.6757 C   0  0  0  0  0  0  0  0  0  0  0  0
   15.4398   -9.5611   10.8604 C   0  0  0  0  0  0  0  0  0  0  0  0
   14.1133   -9.7843   10.4714 C   0  0  0  0  0  0  0  0  0  0  0  0
   12.5547   -2.4910    9.7569 Cl  0  0  0  0  0  0  0  0  0  0  0  0
   13.2784   -8.7765   10.8084 C   0  0  2  0  0  0  0  0  0  0  0  0
   13.4957   -7.8788   11.6510 C   0  0  0  0  0  0  0  0  0  0  0  0
   11.8280   -9.5454   10.9057 C   0  0  0  0  0  0  0  0  0  0  0  0
   11.5204  -10.7417   10.8464 C   0  0  0  0  0  0  0  0  0  0  0  0
   10.1221  -11.2299   10.6516 C   0  0  0  0  0  0  0  0  0  0  0  0
    9.9157  -12.4045   10.0319 C   0  0  0  0  0  0  0  0  0  0  0  0
  2  1  1  1
  2  3  1  0
  3  4  1  0
  2  5  1  0
  4  6  1  0
  1  7  1  0
  1  8  1  0
  5  9  1  0
  6  9  1  0
  4 10  1  1
 10 11  2  0
 10 12  1  0
 12 13  1  0
 13 14  1  0
 14 15  1  0
  9 16  1  6
 15 17  1  0
 12 18  1  0
 17 18  1  0
 17 19  1  1
 19 20  1  0
 20 21  1  0
 21 22  1  0
M  END
$$$$
97
     RDKit          3D

 22 23  0  0  0  0  0  0  0  0999 V2000
    8.9814   -6.8682    4.2404 C   0  0  0  0  0  0  0  0  0  0  0  0
    9.4361   -5.7698    4.6866 C   0  0  0  0  0  0  0  0  0  0  0  0
    9.7341   -7.4544    3.1382 C   0  0  0  0  0  0  0  0  0  0  0  0
   10.5265   -5.0310    4.1749 C   0  0  0  0  0  0  0  0  0  0  0  0
   10.8873   -5.5260    3.0899 C   0  0  0  0  0  0  0  0  0  0  0  0
   10.5766   -6.6653    2.5166 C   0  0  0  0  0  0  0  0  0  0  0  0
   10.7461   -3.6131    4.6862 C   0  0  0  0  0  0  0  0  0  0  0  0
   11.1433   -2.7924    3.9755 O   0  0  0  0  0  0  0  0  0  0  0  0
   10.8096   -3.4323    6.0393 N   0  0  0  0  0  0  0  0  0  0  0  0
   10.6307   -2.1706    6.6374 C   0  0  1  0  0  0  0  0  0  0  0  0
    9.9157   -1.2449    6.0885 C   0  0  0  0  0  0  0  0  0  0  0  0
   10.7559   -2.2171    8.0765 C   0  0  2  0  0  0  0  0  0  0  0  0
   10.3835   -1.0107    8.7787 C   0  0  0  0  0  0  0  0  0  0  0  0
    9.8564    0.1043    8.0688 C   0  0  1  0  0  0  0  0  0  0  0  0
    9.5537    1.3285    8.6876 O   0  0  0  0  0  0  0  0  0  0  0  0
    9.6819   -0.0062    6.6317 C   0  0  0  0  0  0  0  0  0  0  0  0
   11.3578   -3.2975    8.7504 C   0  0  0  0  0  0  0  0  0  0  0  0
   10.7262    2.0155    9.0221 C   0  0  0  0  0  0  0  0  0  0  0  0
   11.4785   -3.4207   10.2405 C   0  0  0  0  0  0  0  0  0  0  0  0
   10.6835   -4.2446   10.7923 C   0  0  0  0  0  0  0  0  0  0  0  0
   10.9621   -4.6009   12.2402 C   0  0  0  0  0  0  0  0  0  0  0  0
    9.8060   -5.1811   12.9323 C   0  0  0  0  0  0  0  0  0  0  0  0
  1  2  1  0
  1  3  1  0
  2  4  1  0
  4  5  1  0
  3  6  1  0
  5  6  1  0
  4  7  1  0
  7  8  2  0
  7  9  1  0
 10  9  1  1
 10 11  1  0
 10 12  1  0
 12 13  1  0
 13 14  1  0
 14 15  1  6
 11 16  1  0
 14 16  1  0
 12 17  1  6
 15 18  1  0
 17 19  1  0
 19 20  1  0
 20 21  1  0
 21 22  1  0
M  END
$$$$
98
     RDKit          3D

 22 23  0  0  0  0  0  0  0  0999 V2000
   15.5092   -8.6337   10.6790 C   0  0  0  0  0  0  0  0  0  0  0  0
   14.7139   -9.7050   10.7109 C   0  0  0  0  0  0  0  0  0  0  0  0
   15.3230   -7.6455   11.5244 C   0  0  0  0  0  0  0  0  0  0  0  0
   13.5491   -9.5113   11.5050 C   0  0  1  0  0  0  0  0  0  0  0  0
   14.3330   -7.4390   12.0848 C   0  0  2  0  0  0  0  0  0  0  0  0
   13.3275   -8.1909   12.0387 C   0  0  0  0  0  0  0  0  0  0  0  0
   12.4598  -10.5337   11.3530 C   0  0  0  0  0  0  0  0  0  0  0  0
   11.7891  -10.6445   10.2104 C   0  0  0  0  0  0  0  0  0  0  0  0
   10.8752  -11.7359   10.2251 C   0  0  0  0  0  0  0  0  0  0  0  0
   14.1459   -6.1359   12.8452 O   0  0  0  0  0  0  0  0  0  0  0  0
   15.0303   -5.0664   12.6775 C   0  0  0  0  0  0  0  0  0  0  0  0
   14.2539   -3.8259   12.6740 C   0  0  0  0  0  0  0  0  0  0  0  0
    9.5073  -11.4087    9.8280 C   0  0  0  0  0  0  0  0  0  0  0  0
    9.2500  -10.0113    9.8465 C   0  0  0  0  0  0  0  0  0  0  0  0
   13.5756   -3.5673   11.5630 O   0  0  0  0  0  0  0  0  0  0  0  0
   12.2594   -3.2576   11.4583 C   0  0  2  0  0  0  0  0  0  0  0  0
   11.8287   -2.5997   10.3773 C   0  0  0  0  0  0  0  0  0  0  0  0
   10.6987   -3.0358    9.7158 C   0  0  2  0  0  0  0  0  0  0  0  0
    9.8767   -4.0096   10.2617 C   0  0  0  0  0  0  0  0  0  0  0  0
   11.5694   -3.6139   12.5336 C   0  0  0  0  0  0  0  0  0  0  0  0
   10.1580   -4.2196   11.7810 C   0  0  0  0  0  0  0  0  0  0  0  0
   10.2739   -2.4982    8.2098 Cl  0  0  0  0  0  0  0  0  0  0  0  0
  1  2  1  0
  1  3  1  0
  2  4  1  0
  3  5  1  0
  4  6  1  0
  5  6  1  0
  4  7  1  6
  7  8  1  0
  8  9  1  0
  5 10  1  6
 10 11  1  0
 11 12  1  0
  9 13  1  0
 13 14  1  0
 12 15  1  0
 16 15  1  1
 16 17  1  0
 17 18  1  0
 18 19  1  0
 16 20  1  0
 19 21  1  0
 20 21  1  0
 18 22  1  6
M  END
$$$$
99
     RDKit          3D

 22 24  0  0  0  0  0  0  0  0999 V2000
   13.3447  -11.1179   11.7852 C   0  0  0  0  0  0  0  0  0  0  0  0
   13.6693   -9.8967   11.8978 C   0  0  0  0  0  0  0  0  0  0  0  0
   11.9866  -11.5484   11.2856 C   0  0  1  0  0  0  0  0  0  0  0  0
   11.5848  -12.9187   11.1276 C   0  0  0  0  0  0  0  0  0  0  0  0
   12.7352   -8.8764   11.5316 C   0  0  2  0  0  0  0  0  0  0  0  0
   11.3664   -9.2443   11.1402 C   0  0  0  0  0  0  0  0  0  0  0  0
   12.8859   -7.4846   11.3051 C   0  0  1  0  0  0  0  0  0  0  0  0
   12.0004   -6.6277   11.5578 O   0  0  0  0  0  0  0  0  0  0  0  0
   12.0850   -5.4644   12.3002 C   0  0  1  0  0  0  0  0  0  0  0  0
   10.4515  -12.9579   10.2661 C   0  0  0  0  0  0  0  0  0  0  0  0
   11.0164  -10.6191   11.0426 C   0  0  1  0  0  0  0  0  0  0  0  0
    9.4971  -11.9442   10.3595 C   0  0  0  0  0  0  0  0  0  0  0  0
    9.9277  -10.5932   10.2368 C   0  0  0  0  0  0  0  0  0  0  0  0
   13.2813   -4.8934   12.1206 C   0  0  2  0  0  0  0  0  0  0  0  0
   14.4387   -5.6242   11.8983 C   0  0  0  0  0  0  0  0  0  0  0  0
   14.3007   -7.0307   11.7593 C   0  0  0  0  0  0  0  0  0  0  0  0
   10.8177   -4.7771   12.4843 C   0  0  0  0  0  0  0  0  0  0  0  0
   10.5553   -3.5785   12.0783 F   0  0  0  0  0  0  0  0  0  0  0  0
    9.8107   -5.5268   11.8031 F   0  0  0  0  0  0  0  0  0  0  0  0
   13.5803   -3.4383   12.6498 C   0  0  0  0  0  0  0  0  0  0  0  0
   10.4300   -4.9337   13.7857 F   0  0  0  0  0  0  0  0  0  0  0  0
   14.7142   -3.0458   13.2395 C   0  0  0  0  0  0  0  0  0  0  0  0
  1  2  1  0
  3  1  1  1
  3  4  1  0
  5  2  1  6
  5  6  1  0
  5  7  1  0
  7  8  1  0
  8  9  1  0
  4 10  1  0
  3 11  1  0
 11  6  1  6
 10 12  1  0
 11 13  1  0
 12 13  1  0
  9 14  1  0
 14 15  1  0
  7 16  1  1
 15 16  1  0
  9 17  1  6
 17 18  1  0
 17 19  1  0
 14 20  1  1
 17 21  1  0
 20 22  1  0
M  END
$$$$
