0
     RDKit          3D

 11 12  0  0  0  0  0  0  0  0999 V2000
    9.5410    0.5984   18.5952 C   0  0  0  0  0  0  0  0  0  0  0  0
    8.4136    1.1899   19.0928 C   0  0  1  0  0  0  0  0  0  0  0  0
    9.5493   -0.5116   17.9197 C   0  0  0  0  0  0  0  0  0  0  0  0
    8.3659    2.2215   20.0649 C   0  0  0  0  0  0  0  0  0  0  0  0
    8.3518   -0.7785   17.0543 C   0  0  2  0  0  0  0  0  0  0  0  0
    8.2469   -1.7202   16.0354 N   0  0  0  0  0  0  0  0  0  0  0  0
    7.1456    0.0414   17.1902 C   0  0  0  0  0  0  0  0  0  0  0  0
    7.1651    2.9459   20.3301 C   0  0  0  0  0  0  0  0  0  0  0  0
    7.0774    0.9124   18.4057 C   0  0  2  0  0  0  0  0  0  0  0  0
    5.9600    1.6617   18.6824 C   0  0  0  0  0  0  0  0  0  0  0  0
    6.0451    2.5668   19.7001 N   0  0  0  0  0  0  0  0  0  0  0  0
  2  1  1  6
  1  3  1  0
  2  4  1  0
  3  5  1  0
  5  6  1  6
  5  7  1  0
  4  8  1  0
  2  9  1  0
  9  7  1  6
  9 10  1  0
  8 11  1  0
 10 11  1  0
M  END
$$$$
1
     RDKit          3D

 11 12  0  0  0  0  0  0  0  0999 V2000
   10.2611    8.0590   25.6410 C   0  0  1  0  0  0  0  0  0  0  0  0
   10.2846    7.3067   26.4569 C   0  0  0  0  0  0  0  0  0  0  0  0
    9.0727    6.7276   26.9165 C   0  0  0  0  0  0  0  0  0  0  0  0
   11.4970    8.7993   25.0257 C   0  0  0  0  0  0  0  0  0  0  0  0
    9.0328    8.4223   24.7553 C   0  0  1  0  0  0  0  0  0  0  0  0
    7.8463    7.7326   25.1823 C   0  0  1  0  0  0  0  0  0  0  0  0
    6.6608    7.9453   24.4673 C   0  0  0  0  0  0  0  0  0  0  0  0
    8.1018    6.7916   26.1599 C   0  0  0  0  0  0  0  0  0  0  0  0
    9.0708    9.4494   23.6079 C   0  0  0  0  0  0  0  0  0  0  0  0
    7.8100    9.5944   23.0557 C   0  0  0  0  0  0  0  0  0  0  0  0
    6.6621    8.8704   23.3596 C   0  0  0  0  0  0  0  0  0  0  0  0
  1  2  1  0
  2  3  1  0
  1  4  1  6
  1  5  1  0
  5  6  1  0
  6  7  1  6
  3  8  1  0
  6  8  1  0
  5  9  1  1
  9 10  1  0
  7 11  1  0
 10 11  1  0
M  END
$$$$
10
     RDKit          3D

 13 14  0  0  0  0  0  0  0  0999 V2000
   10.0425    8.5001   25.1915 C   0  0  0  0  0  0  0  0  0  0  0  0
   10.4373    7.7113   25.9683 C   0  0  2  0  0  0  0  0  0  0  0  0
    8.9463    8.3408   24.5700 C   0  0  2  0  0  0  0  0  0  0  0  0
    8.3011    9.1947   23.5814 C   0  0  0  0  0  0  0  0  0  0  0  0
    6.8925    8.8419   23.1813 C   0  0  0  0  0  0  0  0  0  0  0  0
    8.2091    7.4256   25.2159 C   0  0  1  0  0  0  0  0  0  0  0  0
    6.9287    7.1869   24.8393 N   0  0  0  0  0  0  0  0  0  0  0  0
    6.2908    7.8245   23.8658 C   0  0  1  0  0  0  0  0  0  0  0  0
    4.7663    7.5212   23.6546 C   0  0  0  0  0  0  0  0  0  0  0  0
    4.4400    6.7207   22.9019 O   0  0  0  0  0  0  0  0  0  0  0  0
    9.1583    6.8987   26.0407 N   0  0  0  0  0  0  0  0  0  0  0  0
   11.4513    7.3411   26.9082 C   0  0  0  0  0  0  0  0  0  0  0  0
    4.0179    8.5580   23.9386 N   0  0  0  0  0  0  0  0  0  0  0  0
  1  2  1  0
  3  1  1  1
  3  4  1  0
  4  5  1  0
  3  6  1  0
  6  7  1  6
  5  8  1  0
  7  8  1  0
  8  9  1  1
  9 10  2  0
  2 11  1  0
  6 11  1  0
  2 12  1  1
  9 13  1  0
M  END
$$$$
11
     RDKit          3D

 13 14  0  0  0  0  0  0  0  0999 V2000
   10.0425    8.5001   25.1915 C   0  0  0  0  0  0  0  0  0  0  0  0
   10.4373    7.7113   25.9683 C   0  0  0  0  0  0  0  0  0  0  0  0
    8.9463    8.3408   24.5700 C   0  0  2  0  0  0  0  0  0  0  0  0
    9.6577    6.6951   26.5360 C   0  0  2  0  0  0  0  0  0  0  0  0
    8.3425    6.6821   26.0641 C   0  0  0  0  0  0  0  0  0  0  0  0
    8.3997    9.3507   23.5674 C   0  0  0  0  0  0  0  0  0  0  0  0
    9.9046    5.6504   27.6547 C   0  0  0  0  0  0  0  0  0  0  0  0
    7.9700    7.6149   25.0457 C   0  0  2  0  0  0  0  0  0  0  0  0
    6.5981    7.5539   24.3695 C   0  0  0  0  0  0  0  0  0  0  0  0
    9.3451   10.0831   22.8442 O   0  0  0  0  0  0  0  0  0  0  0  0
    7.2086    9.3093   22.9532 N   0  0  0  0  0  0  0  0  0  0  0  0
    6.3197    8.4156   23.4324 C   0  0  0  0  0  0  0  0  0  0  0  0
    5.0575    8.3648   22.8850 O   0  0  0  0  0  0  0  0  0  0  0  0
  1  2  1  0
  3  1  1  1
  2  4  1  0
  4  5  1  0
  3  6  1  0
  4  7  1  1
  3  8  1  0
  8  5  1  6
  8  9  1  0
  6 10  2  0
  6 11  1  0
  9 12  1  0
 11 12  1  0
 12 13  2  0
M  END
$$$$
12
     RDKit          3D

 13 15  0  0  0  0  0  0  0  0999 V2000
    9.2657    6.7160   26.6495 N   0  0  0  0  0  0  0  0  0  0  0  0
   10.5079    6.9536   27.0913 C   0  0  0  0  0  0  0  0  0  0  0  0
    8.7562    7.4072   25.7231 C   0  0  1  0  0  0  0  0  0  0  0  0
    9.7259    8.3064   25.1713 C   0  0  1  0  0  0  0  0  0  0  0  0
   11.4391    7.7818   26.5848 C   0  0  0  0  0  0  0  0  0  0  0  0
   11.0166    8.5001   25.4250 C   0  0  0  0  0  0  0  0  0  0  0  0
    7.6195    7.5215   25.0283 C   0  0  2  0  0  0  0  0  0  0  0  0
    6.4769    6.7937   25.0557 N   0  0  0  0  0  0  0  0  0  0  0  0
    9.1511    9.1427   23.9266 C   0  0  0  0  0  0  0  0  0  0  0  0
    7.7862    8.5651   23.9342 C   0  0  2  0  0  0  0  0  0  0  0  0
    5.3865    7.1985   24.4060 C   0  0  0  0  0  0  0  0  0  0  0  0
    6.5271    8.8756   23.2482 C   0  0  0  0  0  0  0  0  0  0  0  0
    5.3654    8.2074   23.5047 C   0  0  0  0  0  0  0  0  0  0  0  0
  1  2  1  0
  3  1  1  6
  3  4  1  0
  2  5  1  0
  4  6  1  6
  5  6  1  0
  3  7  1  0
  7  8  1  6
  4  9  1  0
  7 10  1  0
 10  9  1  1
  8 11  1  0
 10 12  1  0
 11 13  1  0
 12 13  1  0
M  END
$$$$
13
     RDKit          3D

 13 15  0  0  0  0  0  0  0  0999 V2000
   11.0117    7.1005   27.4530 C   0  0  0  0  0  0  0  0  0  0  0  0
   10.9736    8.0523   26.5476 C   0  0  0  0  0  0  0  0  0  0  0  0
    9.7922    6.2969   27.2468 C   0  0  0  0  0  0  0  0  0  0  0  0
    9.9844    7.9882   25.5758 C   0  0  1  0  0  0  0  0  0  0  0  0
    9.0708    6.8853   26.0049 N   0  0  0  0  0  0  0  0  0  0  0  0
    9.4066    8.6457   24.4233 C   0  0  0  0  0  0  0  0  0  0  0  0
    8.5866    8.3773   23.7754 C   0  0  1  0  0  0  0  0  0  0  0  0
    7.7072    7.2681   24.1306 N   0  0  0  0  0  0  0  0  0  0  0  0
    7.8879    6.7449   25.2480 C   0  0  0  0  0  0  0  0  0  0  0  0
    8.0035    9.0853   22.6302 C   0  0  0  0  0  0  0  0  0  0  0  0
    6.7187    8.9886   22.2137 C   0  0  0  0  0  0  0  0  0  0  0  0
    5.9159    7.9504   22.8169 C   0  0  0  0  0  0  0  0  0  0  0  0
    6.4245    7.1401   23.5917 C   0  0  0  0  0  0  0  0  0  0  0  0
  1  2  1  0
  1  3  1  0
  4  2  1  1
  3  5  1  0
  4  5  1  0
  4  6  1  0
  7  6  1  1
  7  8  1  0
  5  9  1  0
  8  9  1  0
  7 10  1  0
 10 11  1  0
 11 12  1  0
  8 13  1  0
 12 13  1  0
M  END
$$$$
14
     RDKit          3D

 14 14  0  0  0  0  0  0  0  0999 V2000
   10.5498    9.1253   24.2687 C   0  0  0  0  0  0  0  0  0  0  0  0
    9.3361    9.0294   23.6860 C   0  0  0  0  0  0  0  0  0  0  0  0
   10.8878    8.4209   25.3915 C   0  0  0  0  0  0  0  0  0  0  0  0
    9.9116    7.5628   25.9718 C   0  0  0  0  0  0  0  0  0  0  0  0
    8.3842    8.2008   24.2914 C   0  0  0  0  0  0  0  0  0  0  0  0
    8.6924    7.4404   25.4508 C   0  0  0  0  0  0  0  0  0  0  0  0
   10.3056    6.7520   27.1661 C   0  0  0  0  0  0  0  0  0  0  0  0
    7.0094    8.0196   23.7384 C   0  0  0  0  0  0  0  0  0  0  0  0
    6.1040    7.2647   24.2932 N   0  0  0  0  0  0  0  0  0  0  0  0
    6.6792    8.4914   22.5519 O   0  0  0  0  0  0  0  0  0  0  0  0
    4.8143    7.0525   23.6940 C   0  0  0  0  0  0  0  0  0  0  0  0
    3.7180    7.2237   24.5751 C   0  0  0  0  0  0  0  0  0  0  0  0
    3.8355    8.2541   25.5489 C   0  0  0  0  0  0  0  0  0  0  0  0
    2.4549    7.6519   23.7594 C   0  0  0  0  0  0  0  0  0  0  0  0
  1  2  1  0
  1  3  1  0
  3  4  1  0
  2  5  1  0
  4  6  1  0
  5  6  1  0
  4  7  1  0
  5  8  1  0
  8  9  1  0
  8 10  2  0
  9 11  1  0
 11 12  1  0
 12 13  1  0
 12 14  1  0
M  END
$$$$
15
     RDKit          3D

 14 16  0  0  0  0  0  0  0  0999 V2000
   11.0117    7.1005   27.4530 C   0  0  0  0  0  0  0  0  0  0  0  0
   10.9736    8.0523   26.5476 C   0  0  0  0  0  0  0  0  0  0  0  0
    9.9254    8.1617   25.5660 C   0  0  2  0  0  0  0  0  0  0  0  0
    8.9228    7.1644   25.5002 C   0  0  1  0  0  0  0  0  0  0  0  0
    8.9341    6.1327   26.4844 C   0  0  0  0  0  0  0  0  0  0  0  0
    9.9269    9.1763   24.3198 C   0  0  0  0  0  0  0  0  0  0  0  0
    9.9744    6.1709   27.4741 C   0  0  0  0  0  0  0  0  0  0  0  0
    7.8088    7.2663   24.4917 C   0  0  1  0  0  0  0  0  0  0  0  0
    6.8028    6.3993   24.4874 N   0  0  0  0  0  0  0  0  0  0  0  0
    5.6748    6.5735   23.7663 C   0  0  0  0  0  0  0  0  0  0  0  0
    7.7452    8.4964   23.7415 C   0  0  1  0  0  0  0  0  0  0  0  0
    8.8941    9.3229   23.6655 C   0  0  0  0  0  0  0  0  0  0  0  0
    5.4808    7.7404   23.0175 C   0  0  0  0  0  0  0  0  0  0  0  0
    6.5447    8.6183   22.9743 C   0  0  0  0  0  0  0  0  0  0  0  0
  1  2  1  0
  3  2  1  6
  3  4  1  0
  4  5  1  1
  3  6  1  0
  1  7  1  0
  5  7  1  0
  4  8  1  0
  8  9  1  1
  9 10  1  0
  8 11  1  0
  6 12  1  0
 11 12  1  6
 10 13  1  0
 11 14  1  0
 13 14  1  0
M  END
$$$$
16
     RDKit          3D

 14 15  0  0  0  0  0  0  0  0999 V2000
   10.5498    9.1253   24.2687 C   0  0  0  0  0  0  0  0  0  0  0  0
    9.3361    9.0294   23.6860 C   0  0  1  0  0  0  0  0  0  0  0  0
    8.9670    9.5607   22.4777 N   0  0  0  0  0  0  0  0  0  0  0  0
    7.6765    9.4416   22.0535 C   0  0  1  0  0  0  0  0  0  0  0  0
    7.3126    9.9322   20.8151 C   0  0  0  0  0  0  0  0  0  0  0  0
    6.8935    8.5129   22.7387 C   0  0  0  0  0  0  0  0  0  0  0  0
    6.0565    9.5547   20.3547 O   0  0  0  0  0  0  0  0  0  0  0  0
    8.0288   10.6943   20.0082 O   0  0  0  0  0  0  0  0  0  0  0  0
    8.4795    8.1722   24.4333 C   0  0  0  0  0  0  0  0  0  0  0  0
    8.9537    7.7126   25.6537 C   0  0  0  0  0  0  0  0  0  0  0  0
   11.0428    8.6356   25.4426 C   0  0  0  0  0  0  0  0  0  0  0  0
    7.2543    7.9241   23.9156 C   0  0  0  0  0  0  0  0  0  0  0  0
   10.1383    7.7753   26.1133 C   0  0  1  0  0  0  0  0  0  0  0  0
   10.6391    7.0310   27.3992 C   0  0  0  0  0  0  0  0  0  0  0  0
  2  1  1  6
  2  3  1  0
  3  4  1  0
  4  5  1  6
  4  6  1  0
  5  7  1  0
  5  8  2  0
  2  9  1  0
  9 10  1  0
  1 11  1  0
  6 12  1  0
  9 12  1  0
 10 13  1  0
 11 13  1  0
 13 14  1  1
M  END
$$$$
17
     RDKit          3D

 14 16  0  0  0  0  0  0  0  0999 V2000
   10.0425    8.5001   25.1915 C   0  0  0  0  0  0  0  0  0  0  0  0
   10.4373    7.7113   25.9683 C   0  0  2  0  0  0  0  0  0  0  0  0
    8.9463    8.3408   24.5700 C   0  0  2  0  0  0  0  0  0  0  0  0
    8.3011    9.1947   23.5814 C   0  0  0  0  0  0  0  0  0  0  0  0
    6.8925    8.8419   23.1813 C   0  0  2  0  0  0  0  0  0  0  0  0
    8.2091    7.4256   25.2159 C   0  0  1  0  0  0  0  0  0  0  0  0
    6.9287    7.1869   24.8393 N   0  0  0  0  0  0  0  0  0  0  0  0
    9.1767    6.8134   26.0959 N   0  0  0  0  0  0  0  0  0  0  0  0
   11.5319    7.3555   26.8779 C   0  0  0  0  0  0  0  0  0  0  0  0
    6.2825    7.8372   23.9476 C   0  0  2  0  0  0  0  0  0  0  0  0
    4.9501    7.6009   23.5660 N   0  0  0  0  0  0  0  0  0  0  0  0
    4.6241    8.3417   22.4646 C   0  0  0  0  0  0  0  0  0  0  0  0
    3.9731    6.7453   24.2117 C   0  0  0  0  0  0  0  0  0  0  0  0
    5.8558    9.1581   22.1311 N   0  0  0  0  0  0  0  0  0  0  0  0
  1  2  1  0
  3  1  1  1
  3  4  1  0
  5  4  1  6
  3  6  1  0
  6  7  1  6
  2  8  1  0
  6  8  1  0
  2  9  1  1
  5 10  1  0
 10  7  1  6
 10 11  1  0
 11 12  1  0
 11 13  1  0
  5 14  1  0
 12 14  1  0
M  END
$$$$
18
     RDKit          3D

 14 15  0  0  0  0  0  0  0  0999 V2000
   10.8468    8.1139   26.1314 C   0  0  0  0  0  0  0  0  0  0  0  0
   10.1454    8.7523   25.1682 C   0  0  1  0  0  0  0  0  0  0  0  0
   10.0641    7.0954   26.7673 C   0  0  0  0  0  0  0  0  0  0  0  0
   10.6285    6.2518   27.8288 N   0  0  0  0  0  0  0  0  0  0  0  0
   10.8311    9.5896   24.1880 C   0  0  0  0  0  0  0  0  0  0  0  0
    8.7645    8.5021   24.8054 C   0  0  0  0  0  0  0  0  0  0  0  0
    8.0922    7.5542   25.5403 C   0  0  2  0  0  0  0  0  0  0  0  0
    8.7863    6.8292   26.5136 N   0  0  0  0  0  0  0  0  0  0  0  0
    8.1208    9.2269   23.7673 C   0  0  0  0  0  0  0  0  0  0  0  0
    6.7406    8.9867   23.4457 C   0  0  0  0  0  0  0  0  0  0  0  0
    6.1751    9.3810   22.3311 O   0  0  0  0  0  0  0  0  0  0  0  0
    6.8224    7.3854   24.9415 C   0  0  0  0  0  0  0  0  0  0  0  0
    6.0180    8.2400   24.2718 N   0  0  0  0  0  0  0  0  0  0  0  0
    4.5832    8.3171   24.2451 C   0  0  0  0  0  0  0  0  0  0  0  0
  1  2  1  0
  1  3  1  0
  3  4  1  0
  2  5  1  6
  2  6  1  0
  6  7  1  0
  3  8  1  0
  7  8  1  0
  6  9  1  0
  9 10  1  0
 10 11  2  0
  7 12  1  6
 10 13  1  0
 12 13  1  0
 13 14  1  0
M  END
$$$$
19
     RDKit          3D

 14 16  0  0  0  0  0  0  0  0999 V2000
    9.2107    0.3349   19.2624 C   0  0  0  0  0  0  0  0  0  0  0  0
    8.1701    1.3082   19.3525 C   0  0  1  0  0  0  0  0  0  0  0  0
    9.4883    0.0857   17.8490 C   0  0  0  0  0  0  0  0  0  0  0  0
    7.1813    1.5255   18.4076 C   0  0  2  0  0  0  0  0  0  0  0  0
    8.0339    1.9544   20.6942 C   0  0  0  0  0  0  0  0  0  0  0  0
    6.9720    2.8462   20.7068 C   0  0  1  0  0  0  0  0  0  0  0  0
    8.4330    0.1901   16.8662 N   0  0  0  0  0  0  0  0  0  0  0  0
    6.9252    3.7357   21.9890 N   0  0  0  0  0  0  0  0  0  0  0  0
    7.3777    0.9829   17.1491 C   0  0  0  0  0  0  0  0  0  0  0  0
    6.0889    3.0758   19.6668 C   0  0  0  0  0  0  0  0  0  0  0  0
    5.0415    4.0276   19.8807 C   0  0  0  0  0  0  0  0  0  0  0  0
    5.0539    4.8413   21.0160 N   0  0  0  0  0  0  0  0  0  0  0  0
    6.1631    2.4745   18.5727 C   0  0  0  0  0  0  0  0  0  0  0  0
    5.9269    4.6068   22.0062 C   0  0  0  0  0  0  0  0  0  0  0  0
  2  1  1  1
  1  3  1  0
  2  4  1  0
  2  5  1  0
  6  5  1  6
  3  7  1  0
  6  8  1  0
  4  9  1  6
  7  9  1  0
  6 10  1  0
 10 11  1  0
 11 12  1  0
  4 13  1  0
 10 13  1  0
  8 14  1  0
 12 14  1  0
M  END
$$$$
2
     RDKit          3D

 12 13  0  0  0  0  0  0  0  0999 V2000
    9.6988    6.1577   27.5765 N   0  0  0  0  0  0  0  0  0  0  0  0
    9.0331    6.7007   26.5940 C   0  0  0  0  0  0  0  0  0  0  0  0
   11.0010    6.5957   27.7258 C   0  0  0  0  0  0  0  0  0  0  0  0
   11.5278    7.5342   26.8591 C   0  0  0  0  0  0  0  0  0  0  0  0
   10.8742    8.0879   25.7866 C   0  0  0  0  0  0  0  0  0  0  0  0
    9.5911    7.7855   25.6856 C   0  0  1  0  0  0  0  0  0  0  0  0
    8.6491    8.2807   24.5660 C   0  0  0  0  0  0  0  0  0  0  0  0
    8.9629    9.3882   23.9345 C   0  0  0  0  0  0  0  0  0  0  0  0
    8.0803    9.7997   22.8789 C   0  0  0  0  0  0  0  0  0  0  0  0
    7.4877    7.6688   24.0582 C   0  0  1  0  0  0  0  0  0  0  0  0
    6.6451    6.8838   24.5709 N   0  0  0  0  0  0  0  0  0  0  0  0
    7.0757    8.6162   23.0516 N   0  0  0  0  0  0  0  0  0  0  0  0
  1  2  1  0
  1  3  1  0
  3  4  1  0
  4  5  1  0
  2  6  1  0
  5  6  1  0
  6  7  1  6
  7  8  2  0
  8  9  1  0
  7 10  1  0
 10 11  1  1
  9 12  2  0
 10 12  1  0
M  END
$$$$
20
     RDKit          3D

 14 15  0  0  0  0  0  0  0  0999 V2000
   11.0243    6.9051   27.4591 C   0  0  0  0  0  0  0  0  0  0  0  0
    9.8598    6.2798   27.1830 C   0  0  0  0  0  0  0  0  0  0  0  0
    8.9897    7.0789   26.2684 N   0  0  0  0  0  0  0  0  0  0  0  0
   11.4051    7.7755   26.3137 C   0  0  0  0  0  0  0  0  0  0  0  0
    9.7921    7.9363   25.4157 C   0  0  0  0  0  0  0  0  0  0  0  0
   10.8241    8.1869   25.5288 C   0  0  0  0  0  0  0  0  0  0  0  0
    8.7832    8.4200   24.3486 C   0  0  0  0  0  0  0  0  0  0  0  0
    9.1705    8.9456   23.1349 C   0  0  0  0  0  0  0  0  0  0  0  0
    7.3588    8.4046   24.4199 C   0  0  0  0  0  0  0  0  0  0  0  0
    8.3881    9.3633   22.1016 C   0  0  2  0  0  0  0  0  0  0  0  0
    7.0056    9.3359   22.3279 C   0  0  0  0  0  0  0  0  0  0  0  0
    6.5189    8.8479   23.5058 C   0  0  0  0  0  0  0  0  0  0  0  0
    8.9093    9.5946   20.7450 N   0  0  0  0  0  0  0  0  0  0  0  0
    8.8283    8.5833   19.8214 C   0  0  0  0  0  0  0  0  0  0  0  0
  1  2  1  0
  2  3  1  0
  1  4  1  0
  3  5  1  0
  4  6  1  0
  5  6  1  0
  5  7  1  0
  7  8  1  0
  7  9  1  0
  8 10  1  0
 10 11  1  0
  9 12  1  0
 11 12  1  0
 10 13  1  6
 13 14  1  0
M  END
$$$$
21
     RDKit          3D

 14 15  0  0  0  0  0  0  0  0999 V2000
    9.9731    7.6128   26.4417 C   0  0  2  0  0  0  0  0  0  0  0  0
    9.1089    7.7456   25.5885 C   0  0  2  0  0  0  0  0  0  0  0  0
    9.3946    8.6017   24.5008 C   0  0  0  0  0  0  0  0  0  0  0  0
   11.0843    7.8105   26.2318 C   0  0  0  0  0  0  0  0  0  0  0  0
   11.6041    8.6919   25.1702 C   0  0  0  0  0  0  0  0  0  0  0  0
   10.6306    9.0118   24.2617 C   0  0  0  0  0  0  0  0  0  0  0  0
    9.7828    6.4639   27.6919 C   0  0  0  0  0  0  0  0  0  0  0  0
   10.6873    5.4369   27.6519 N   0  0  0  0  0  0  0  0  0  0  0  0
    8.2075    8.9670   23.6558 C   0  0  0  0  0  0  0  0  0  0  0  0
    6.9784    8.4838   24.0433 C   0  0  0  0  0  0  0  0  0  0  0  0
    7.5751    7.6328   25.4242 N   0  0  0  0  0  0  0  0  0  0  0  0
    5.7654    8.4856   23.7311 C   0  0  0  0  0  0  0  0  0  0  0  0
    5.4702    8.3533   22.4920 O   0  0  0  0  0  0  0  0  0  0  0  0
    4.8084    8.9022   24.5342 N   0  0  0  0  0  0  0  0  0  0  0  0
  1  2  1  0
  2  3  1  0
  1  4  1  0
  4  5  1  0
  3  6  1  0
  5  6  1  0
  1  7  1  6
  7  8  1  0
  3  9  1  0
  9 10  1  0
  2 11  1  1
 10 11  1  0
 10 12  1  0
 12 13  2  0
 12 14  1  0
M  END
$$$$
22
     RDKit          3D

 14 16  0  0  0  0  0  0  0  0999 V2000
   10.0666    6.5793   27.3703 C   0  0  0  0  0  0  0  0  0  0  0  0
   11.1296    7.2240   27.1545 C   0  0  0  0  0  0  0  0  0  0  0  0
    8.8506    6.9299   26.6053 C   0  0  0  0  0  0  0  0  0  0  0  0
    9.3541    7.8479   25.5053 C   0  0  2  0  0  0  0  0  0  0  0  0
   11.2160    7.9833   25.8814 C   0  0  0  0  0  0  0  0  0  0  0  0
   10.2750    8.3831   25.2405 C   0  0  1  0  0  0  0  0  0  0  0  0
   10.4055    9.3133   23.8693 S   0  0  0  0  0  0  0  0  0  0  0  0
    8.0290    8.2386   24.5561 C   0  0  1  0  0  0  0  0  0  0  0  0
    8.7077    9.0208   23.4874 C   0  0  0  0  0  0  0  0  0  0  0  0
    7.8254    9.3061   22.4544 C   0  0  0  0  0  0  0  0  0  0  0  0
    6.5725    8.9048   22.6955 C   0  0  0  0  0  0  0  0  0  0  0  0
    6.7477    8.1642   24.1883 C   0  0  0  0  0  0  0  0  0  0  0  0
    5.3985    8.9386   22.0582 O   0  0  0  0  0  0  0  0  0  0  0  0
    5.3388    8.2580   20.8269 C   0  0  0  0  0  0  0  0  0  0  0  0
  1  2  1  0
  1  3  1  0
  4  3  1  1
  2  5  1  0
  4  6  1  0
  6  5  1  6
  6  7  1  0
  4  8  1  0
  7  9  1  0
  8  9  1  0
  9 10  1  0
 10 11  1  0
  8 12  1  6
 11 12  1  0
 11 13  1  0
 13 14  1  0
M  END
$$$$
23
     RDKit          3D

 15 17  0  0  0  0  0  0  0  0999 V2000
   10.0425    8.5001   25.1915 C   0  0  1  0  0  0  0  0  0  0  0  0
   10.4373    7.7113   25.9683 C   0  0  0  0  0  0  0  0  0  0  0  0
    9.6295    6.7549   26.6024 C   0  0  2  0  0  0  0  0  0  0  0  0
   10.8986    9.3599   24.2931 C   0  0  0  0  0  0  0  0  0  0  0  0
    8.7452    8.0991   24.5625 C   0  0  2  0  0  0  0  0  0  0  0  0
    8.0948    8.9702   23.5044 C   0  0  0  0  0  0  0  0  0  0  0  0
    7.9825    7.3185   25.2400 C   0  0  0  0  0  0  0  0  0  0  0  0
    8.4785    6.5396   26.2350 C   0  0  0  0  0  0  0  0  0  0  0  0
   10.3412    6.1398   27.7739 N   0  0  0  0  0  0  0  0  0  0  0  0
    8.9863    9.7624   22.7171 N   0  0  0  0  0  0  0  0  0  0  0  0
    8.5367   10.2249   21.4776 C   0  0  0  0  0  0  0  0  0  0  0  0
   10.3421    9.8772   23.0347 C   0  0  0  0  0  0  0  0  0  0  0  0
    6.7175    9.0570   23.2993 C   0  0  0  0  0  0  0  0  0  0  0  0
    7.1310   10.1047   21.3727 N   0  0  0  0  0  0  0  0  0  0  0  0
    6.3114    9.4885   22.1014 N   0  0  0  0  0  0  0  0  0  0  0  0
  1  2  1  6
  2  3  1  0
  1  4  1  0
  1  5  1  0
  5  6  1  0
  5  7  1  1
  3  8  1  0
  7  8  1  0
  3  9  1  1
  6 10  1  0
 10 11  1  0
  4 12  1  0
 10 12  1  0
  6 13  1  0
 11 14  1  0
 13 15  1  0
 14 15  1  0
M  END
$$$$
24
     RDKit          3D

 15 17  0  0  0  0  0  0  0  0999 V2000
   10.0425    8.5001   25.1915 C   0  0  0  0  0  0  0  0  0  0  0  0
   10.4373    7.7113   25.9683 C   0  0  2  0  0  0  0  0  0  0  0  0
    8.9463    8.3408   24.5700 C   0  0  2  0  0  0  0  0  0  0  0  0
    8.3011    9.1947   23.5814 C   0  0  0  0  0  0  0  0  0  0  0  0
    6.8925    8.8419   23.1813 C   0  0  0  0  0  0  0  0  0  0  0  0
    8.2091    7.4256   25.2159 C   0  0  1  0  0  0  0  0  0  0  0  0
    6.9287    7.1869   24.8393 N   0  0  0  0  0  0  0  0  0  0  0  0
    9.1767    6.8134   26.0959 N   0  0  0  0  0  0  0  0  0  0  0  0
   11.5319    7.3555   26.8779 C   0  0  0  0  0  0  0  0  0  0  0  0
    6.2825    7.8372   23.9476 C   0  0  2  0  0  0  0  0  0  0  0  0
    4.9457    7.4479   23.6951 N   0  0  0  0  0  0  0  0  0  0  0  0
    4.0297    7.1545   24.5606 C   0  0  0  0  0  0  0  0  0  0  0  0
    2.8670    6.5033   24.0811 C   0  0  0  0  0  0  0  0  0  0  0  0
    2.6377    6.6908   22.8789 C   0  0  0  0  0  0  0  0  0  0  0  0
    4.0253    7.2377   22.4255 C   0  0  0  0  0  0  0  0  0  0  0  0
  1  2  1  0
  3  1  1  1
  3  4  1  0
  4  5  1  0
  3  6  1  0
  6  7  1  6
  2  8  1  0
  6  8  1  0
  2  9  1  1
  5 10  1  0
  7 10  1  0
 10 11  1  6
 11 12  1  0
 12 13  1  0
 13 14  1  0
 11 15  1  0
 14 15  1  0
M  END
$$$$
25
     RDKit          3D

 15 17  0  0  0  0  0  0  0  0999 V2000
   11.1806    7.1609   27.2120 C   0  0  0  0  0  0  0  0  0  0  0  0
   11.1115    8.0012   26.1952 C   0  0  0  0  0  0  0  0  0  0  0  0
    9.9863    6.3786   27.3797 C   0  0  0  0  0  0  0  0  0  0  0  0
    8.8502    6.7413   26.5291 C   0  0  0  0  0  0  0  0  0  0  0  0
   10.2222    8.3309   25.2740 C   0  0  1  0  0  0  0  0  0  0  0  0
    9.0522    7.7188   25.4537 C   0  0  0  0  0  0  0  0  0  0  0  0
   10.1246    9.2522   24.1169 C   0  0  0  0  0  0  0  0  0  0  0  0
    7.9094    7.9383   24.6188 C   0  0  2  0  0  0  0  0  0  0  0  0
    9.1414    9.4195   23.3275 C   0  0  0  0  0  0  0  0  0  0  0  0
    7.9670    8.7791   23.5948 C   0  0  0  0  0  0  0  0  0  0  0  0
    6.8229    9.0653   22.7284 C   0  0  0  0  0  0  0  0  0  0  0  0
    5.6452    8.4448   23.0042 C   0  0  0  0  0  0  0  0  0  0  0  0
    5.5885    7.6831   23.9962 N   0  0  0  0  0  0  0  0  0  0  0  0
    6.5782    7.3703   24.8576 C   0  0  0  0  0  0  0  0  0  0  0  0
    4.2387    7.1123   24.2046 C   0  0  0  0  0  0  0  0  0  0  0  0
  1  2  1  0
  1  3  1  0
  3  4  1  0
  5  2  1  1
  4  6  1  0
  5  6  1  0
  5  7  1  0
  6  8  1  0
  7  9  1  0
  8 10  1  0
  9 10  1  0
 10 11  1  0
 11 12  1  0
 12 13  1  0
  8 14  1  1
 13 14  1  0
 13 15  1  0
M  END
$$$$
26
     RDKit          3D

 15 17  0  0  0  0  0  0  0  0999 V2000
   10.8468    8.1139   26.1314 C   0  0  0  0  0  0  0  0  0  0  0  0
   10.1454    8.7523   25.1682 C   0  0  1  0  0  0  0  0  0  0  0  0
   10.0641    7.0954   26.7673 C   0  0  2  0  0  0  0  0  0  0  0  0
   10.6285    6.2518   27.8288 N   0  0  0  0  0  0  0  0  0  0  0  0
   10.8311    9.5896   24.1880 C   0  0  0  0  0  0  0  0  0  0  0  0
    8.7645    8.5021   24.8054 C   0  0  1  0  0  0  0  0  0  0  0  0
    8.0695    9.2588   23.7895 C   0  0  1  0  0  0  0  0  0  0  0  0
    8.2076    7.3064   25.3372 C   0  0  1  0  0  0  0  0  0  0  0  0
    8.9295    6.7088   26.3609 N   0  0  0  0  0  0  0  0  0  0  0  0
    8.8787   10.0659   23.0359 C   0  0  0  0  0  0  0  0  0  0  0  0
   10.1663   10.3243   23.2855 C   0  0  0  0  0  0  0  0  0  0  0  0
    6.7134    8.8917   23.6009 C   0  0  0  0  0  0  0  0  0  0  0  0
    6.0800    7.8789   24.3761 C   0  0  2  0  0  0  0  0  0  0  0  0
    6.8271    7.2031   25.1475 N   0  0  0  0  0  0  0  0  0  0  0  0
    4.8036    7.4854   24.1270 N   0  0  0  0  0  0  0  0  0  0  0  0
  2  1  1  6
  1  3  1  0
  3  4  1  6
  2  5  1  0
  6  2  1  6
  6  7  1  0
  6  8  1  0
  3  9  1  0
  8  9  1  1
  7 10  1  6
  5 11  1  0
 10 11  1  0
  7 12  1  0
 12 13  1  0
  8 14  1  0
 13 14  1  0
 13 15  1  6
M  END
$$$$
27
     RDKit          3D

 15 16  0  0  0  0  0  0  0  0999 V2000
   10.3882    7.1623   27.0729 C   0  0  0  0  0  0  0  0  0  0  0  0
    9.2960    7.0542   26.4025 C   0  0  0  0  0  0  0  0  0  0  0  0
   11.4415    7.6449   26.5732 C   0  0  0  0  0  0  0  0  0  0  0  0
    9.0812    7.7948   25.2086 C   0  0  0  0  0  0  0  0  0  0  0  0
    7.8636    7.9095   24.4491 C   0  0  1  0  0  0  0  0  0  0  0  0
   10.3192    8.4940   24.6507 C   0  0  0  0  0  0  0  0  0  0  0  0
    7.8236    8.5531   23.2770 C   0  0  1  0  0  0  0  0  0  0  0  0
    6.5089    7.2901   24.5909 C   0  0  0  0  0  0  0  0  0  0  0  0
   11.4446    8.5018   25.3953 C   0  0  0  0  0  0  0  0  0  0  0  0
    5.6617    7.7272   23.8281 C   0  0  0  0  0  0  0  0  0  0  0  0
    6.5076    8.5051   22.7353 C   0  0  1  0  0  0  0  0  0  0  0  0
    5.9266    9.1159   21.5626 N   0  0  0  0  0  0  0  0  0  0  0  0
    8.8442    9.3359   22.5065 C   0  0  0  0  0  0  0  0  0  0  0  0
    9.5340    8.7664   21.6173 N   0  0  0  0  0  0  0  0  0  0  0  0
    4.9719    8.3707   20.9579 O   0  0  0  0  0  0  0  0  0  0  0  0
  1  2  1  0
  1  3  1  0
  2  4  1  0
  5  4  1  6
  4  6  1  0
  5  7  1  0
  5  8  1  0
  3  9  1  0
  6  9  1  0
  8 10  1  0
  7 11  1  0
 10 11  1  0
 11 12  1  1
  7 13  1  1
 13 14  1  0
 12 15  1  0
M  END
$$$$
28
     RDKit          3D

 15 17  0  0  0  0  0  0  0  0999 V2000
   10.0666    6.5793   27.3703 C   0  0  0  0  0  0  0  0  0  0  0  0
   11.1296    7.2240   27.1545 C   0  0  0  0  0  0  0  0  0  0  0  0
    8.8506    6.9299   26.6053 C   0  0  0  0  0  0  0  0  0  0  0  0
    9.3541    7.8479   25.5053 C   0  0  2  0  0  0  0  0  0  0  0  0
   11.2160    7.9833   25.8814 C   0  0  0  0  0  0  0  0  0  0  0  0
   10.2750    8.3831   25.2405 C   0  0  1  0  0  0  0  0  0  0  0  0
   10.4055    9.3133   23.8693 S   0  0  0  0  0  0  0  0  0  0  0  0
    8.0290    8.2386   24.5561 C   0  0  0  0  0  0  0  0  0  0  0  0
    8.7077    9.0208   23.4874 C   0  0  0  0  0  0  0  0  0  0  0  0
    7.8254    9.3061   22.4544 C   0  0  1  0  0  0  0  0  0  0  0  0
    6.5725    8.9048   22.6955 C   0  0  0  0  0  0  0  0  0  0  0  0
    6.7001    8.1250   24.3419 C   0  0  0  0  0  0  0  0  0  0  0  0
    8.1403   10.2405   21.4073 C   0  0  0  0  0  0  0  0  0  0  0  0
    7.2170   10.5224   20.4668 O   0  0  0  0  0  0  0  0  0  0  0  0
    7.1979    9.6735   19.3536 C   0  0  0  0  0  0  0  0  0  0  0  0
  1  2  1  0
  1  3  1  0
  4  3  1  1
  2  5  1  0
  4  6  1  0
  6  5  1  6
  6  7  1  0
  4  8  1  0
  7  9  1  0
  8  9  1  0
  9 10  1  0
 10 11  1  0
  8 12  1  0
 11 12  1  0
 10 13  1  1
 13 14  1  0
 14 15  1  0
M  END
$$$$
29
     RDKit          3D

 15 16  0  0  0  0  0  0  0  0999 V2000
   10.5498    9.1253   24.2687 C   0  0  0  0  0  0  0  0  0  0  0  0
    9.3361    9.0294   23.6860 C   0  0  1  0  0  0  0  0  0  0  0  0
    8.9670    9.5607   22.4777 N   0  0  0  0  0  0  0  0  0  0  0  0
    7.6765    9.4416   22.0535 C   0  0  1  0  0  0  0  0  0  0  0  0
    7.3126    9.9322   20.8151 C   0  0  0  0  0  0  0  0  0  0  0  0
    6.8935    8.5129   22.7387 C   0  0  0  0  0  0  0  0  0  0  0  0
    6.0565    9.5547   20.3547 O   0  0  0  0  0  0  0  0  0  0  0  0
    8.0288   10.6943   20.0082 O   0  0  0  0  0  0  0  0  0  0  0  0
    8.4795    8.1722   24.4333 C   0  0  0  0  0  0  0  0  0  0  0  0
    8.9537    7.7126   25.6537 C   0  0  0  0  0  0  0  0  0  0  0  0
   11.0428    8.6356   25.4426 C   0  0  0  0  0  0  0  0  0  0  0  0
    7.2543    7.9241   23.9156 C   0  0  0  0  0  0  0  0  0  0  0  0
   10.1383    7.7753   26.1133 C   0  0  1  0  0  0  0  0  0  0  0  0
   10.6284    7.1902   27.3950 C   0  0  0  0  0  0  0  0  0  0  0  0
   10.0862    5.9228   27.5950 N   0  0  0  0  0  0  0  0  0  0  0  0
  2  1  1  6
  2  3  1  0
  3  4  1  0
  4  5  1  6
  4  6  1  0
  5  7  1  0
  5  8  2  0
  2  9  1  0
  9 10  1  0
  1 11  1  0
  6 12  1  0
  9 12  1  0
 10 13  1  0
 11 13  1  0
 13 14  1  1
 14 15  1  0
M  END
$$$$
3
     RDKit          3D

 12 13  0  0  0  0  0  0  0  0999 V2000
   10.0425    8.5001   25.1915 C   0  0  0  0  0  0  0  0  0  0  0  0
   10.4373    7.7113   25.9683 C   0  0  0  0  0  0  0  0  0  0  0  0
    8.9463    8.3408   24.5700 C   0  0  2  0  0  0  0  0  0  0  0  0
    9.6577    6.6951   26.5360 C   0  0  2  0  0  0  0  0  0  0  0  0
    8.3425    6.6821   26.0641 C   0  0  0  0  0  0  0  0  0  0  0  0
   10.2389    5.6765   27.7279 C   0  0  0  0  0  0  0  0  0  0  0  0
    8.4437    9.3814   23.5342 C   0  0  0  0  0  0  0  0  0  0  0  0
    7.9536    7.5670   25.1058 C   0  0  2  0  0  0  0  0  0  0  0  0
    7.0975    9.1704   23.1576 C   0  0  0  0  0  0  0  0  0  0  0  0
    6.7124    9.7313   21.8833 O   0  0  0  0  0  0  0  0  0  0  0  0
    6.5656    7.4935   24.4950 C   0  0  0  0  0  0  0  0  0  0  0  0
    6.2003    8.4977   23.7073 N   0  0  0  0  0  0  0  0  0  0  0  0
  1  2  1  0
  3  1  1  1
  2  4  1  0
  4  5  1  0
  4  6  1  1
  3  7  1  0
  3  8  1  0
  8  5  1  6
  7  9  1  0
  9 10  2  0
  8 11  1  0
  9 12  1  0
 11 12  1  0
M  END
$$$$
30
     RDKit          3D

 15 17  0  0  0  0  0  0  0  0999 V2000
   11.2842    8.6161   25.2737 C   0  0  0  0  0  0  0  0  0  0  0  0
   10.2539    8.9777   24.5222 C   0  0  0  0  0  0  0  0  0  0  0  0
    8.9858    8.4706   24.5016 C   0  0  0  0  0  0  0  0  0  0  0  0
    8.8872    7.6456   25.4445 C   0  0  1  0  0  0  0  0  0  0  0  0
   10.9869    7.7049   26.3345 C   0  0  0  0  0  0  0  0  0  0  0  0
    9.7813    7.2433   26.3877 C   0  0  0  0  0  0  0  0  0  0  0  0
    8.0136    8.8982   23.5638 C   0  0  1  0  0  0  0  0  0  0  0  0
    8.3274    9.5545   22.4025 C   0  0  0  0  0  0  0  0  0  0  0  0
    6.8089    7.9765   23.4193 C   0  0  1  0  0  0  0  0  0  0  0  0
    8.1305    9.1706   21.2439 C   0  0  2  0  0  0  0  0  0  0  0  0
    6.2243    7.5295   24.6854 C   0  0  0  0  0  0  0  0  0  0  0  0
    8.5474    9.8926   20.0274 O   0  0  0  0  0  0  0  0  0  0  0  0
    7.3967    7.4620   25.6648 N   0  0  0  0  0  0  0  0  0  0  0  0
    6.1654    8.1135   22.2905 C   0  0  0  0  0  0  0  0  0  0  0  0
    6.7583    8.5836   21.0795 C   0  0  0  0  0  0  0  0  0  0  0  0
  1  2  1  0
  2  3  1  0
  3  4  1  0
  1  5  1  0
  4  6  1  1
  5  6  1  0
  3  7  1  0
  7  8  1  6
  7  9  1  0
  8 10  1  0
  9 11  1  1
 10 12  1  6
  4 13  1  0
 11 13  1  0
  9 14  1  0
 10 15  1  0
 14 15  1  0
M  END
$$$$
31
     RDKit          3D

 16 18  0  0  0  0  0  0  0  0999 V2000
   11.2884    7.3184   26.9534 C   0  0  0  0  0  0  0  0  0  0  0  0
   10.1511    6.4455   27.2463 C   0  0  2  0  0  0  0  0  0  0  0  0
   10.0591    5.4626   28.1122 N   0  0  0  0  0  0  0  0  0  0  0  0
   11.0445    8.2516   25.9280 C   0  0  0  0  0  0  0  0  0  0  0  0
    9.0788    6.8210   26.2838 N   0  0  0  0  0  0  0  0  0  0  0  0
    9.6065    7.9190   25.4933 C   0  0  2  0  0  0  0  0  0  0  0  0
    9.0208    8.5342   24.3382 C   0  0  0  0  0  0  0  0  0  0  0  0
    9.7431    9.3635   23.5842 C   0  0  0  0  0  0  0  0  0  0  0  0
    7.6007    8.2150   24.0036 C   0  0  1  0  0  0  0  0  0  0  0  0
    6.7506    7.4633   24.8852 N   0  0  0  0  0  0  0  0  0  0  0  0
    5.5515    7.6282   24.3707 C   0  0  0  0  0  0  0  0  0  0  0  0
    7.0831    8.8008   22.9192 C   0  0  2  0  0  0  0  0  0  0  0  0
    4.3837    7.1299   24.8914 N   0  0  0  0  0  0  0  0  0  0  0  0
    5.6479    8.3984   22.8803 C   0  0  0  0  0  0  0  0  0  0  0  0
    7.7010    9.5979   21.9047 C   0  0  0  0  0  0  0  0  0  0  0  0
    9.0071    9.7618   22.1738 C   0  0  0  0  0  0  0  0  0  0  0  0
  1  2  1  0
  2  3  1  6
  1  4  1  0
  2  5  1  0
  4  6  1  0
  5  6  1  0
  6  7  1  6
  7  8  1  0
  7  9  1  0
  9 10  1  1
 10 11  1  0
  9 12  1  0
 11 13  2  0
 11 14  1  0
 12 14  1  6
 12 15  1  0
  8 16  1  0
 15 16  1  0
M  END
$$$$
32
     RDKit          3D

 16 18  0  0  0  0  0  0  0  0999 V2000
   10.0666    6.5793   27.3703 C   0  0  0  0  0  0  0  0  0  0  0  0
   11.1296    7.2240   27.1545 C   0  0  0  0  0  0  0  0  0  0  0  0
    8.8506    6.9299   26.6053 C   0  0  0  0  0  0  0  0  0  0  0  0
    9.3541    7.8479   25.5053 C   0  0  2  0  0  0  0  0  0  0  0  0
   11.2160    7.9833   25.8814 C   0  0  0  0  0  0  0  0  0  0  0  0
   10.2750    8.3831   25.2405 C   0  0  1  0  0  0  0  0  0  0  0  0
   10.4055    9.3133   23.8693 S   0  0  0  0  0  0  0  0  0  0  0  0
    8.0290    8.2386   24.5561 C   0  0  0  0  0  0  0  0  0  0  0  0
    8.7077    9.0208   23.4874 C   0  0  0  0  0  0  0  0  0  0  0  0
    7.8254    9.3061   22.4544 C   0  0  1  0  0  0  0  0  0  0  0  0
    6.5725    8.9048   22.6955 C   0  0  0  0  0  0  0  0  0  0  0  0
    6.7001    8.1250   24.3419 C   0  0  0  0  0  0  0  0  0  0  0  0
    8.1403   10.2405   21.4073 C   0  0  0  0  0  0  0  0  0  0  0  0
    8.3925    9.7133   20.1805 N   0  0  0  0  0  0  0  0  0  0  0  0
    7.6052    8.9964   19.4813 C   0  0  0  0  0  0  0  0  0  0  0  0
    6.6982    9.4798   18.6870 C   0  0  0  0  0  0  0  0  0  0  0  0
  1  2  1  0
  1  3  1  0
  4  3  1  1
  2  5  1  0
  4  6  1  0
  6  5  1  6
  6  7  1  0
  4  8  1  0
  7  9  1  0
  8  9  1  0
  9 10  1  0
 10 11  1  0
  8 12  1  0
 11 12  1  0
 10 13  1  1
 13 14  1  0
 14 15  1  0
 15 16  2  0
M  END
$$$$
33
     RDKit          3D

 16 18  0  0  0  0  0  0  0  0999 V2000
   10.0425    8.5001   25.1915 C   0  0  0  0  0  0  0  0  0  0  0  0
   10.4373    7.7113   25.9683 C   0  0  2  0  0  0  0  0  0  0  0  0
    8.9463    8.3408   24.5700 C   0  0  2  0  0  0  0  0  0  0  0  0
    8.3011    9.1947   23.5814 C   0  0  0  0  0  0  0  0  0  0  0  0
    6.8925    8.8419   23.1813 C   0  0  0  0  0  0  0  0  0  0  0  0
    8.2091    7.4256   25.2159 C   0  0  1  0  0  0  0  0  0  0  0  0
    6.9287    7.1869   24.8393 N   0  0  0  0  0  0  0  0  0  0  0  0
    6.2908    7.8245   23.8658 C   0  0  1  0  0  0  0  0  0  0  0  0
    4.7663    7.5212   23.6546 C   0  0  0  0  0  0  0  0  0  0  0  0
    9.1548    6.8317   26.0756 N   0  0  0  0  0  0  0  0  0  0  0  0
   11.3524    7.2017   27.0271 C   0  0  0  0  0  0  0  0  0  0  0  0
    4.0065    7.9519   24.4516 C   0  0  0  0  0  0  0  0  0  0  0  0
    2.5811    7.5771   24.3460 C   0  0  0  0  0  0  0  0  0  0  0  0
    2.2532    6.7550   23.3087 C   0  0  0  0  0  0  0  0  0  0  0  0
    4.5039    6.7896   22.4332 C   0  0  0  0  0  0  0  0  0  0  0  0
    3.1805    6.3715   22.4081 C   0  0  0  0  0  0  0  0  0  0  0  0
  1  2  1  0
  3  1  1  1
  3  4  1  0
  4  5  1  0
  3  6  1  0
  6  7  1  6
  5  8  1  0
  7  8  1  0
  8  9  1  1
  2 10  1  0
  6 10  1  0
  2 11  1  1
  9 12  1  0
 12 13  1  0
 13 14  1  0
  9 15  1  0
 14 16  1  0
 15 16  1  0
M  END
$$$$
34
     RDKit          3D

 16 17  0  0  0  0  0  0  0  0999 V2000
   11.2842    8.6161   25.2737 C   0  0  0  0  0  0  0  0  0  0  0  0
   10.2539    8.9777   24.5222 C   0  0  0  0  0  0  0  0  0  0  0  0
   10.9142    7.6523   26.3175 C   0  0  2  0  0  0  0  0  0  0  0  0
   11.8264    7.1124   27.2873 C   0  0  0  0  0  0  0  0  0  0  0  0
    9.4936    7.2559   26.1751 C   0  0  0  0  0  0  0  0  0  0  0  0
    9.0287    8.3612   24.5651 C   0  0  2  0  0  0  0  0  0  0  0  0
    8.0404    8.9710   23.5567 C   0  0  2  0  0  0  0  0  0  0  0  0
    6.6742    8.5585   23.7384 C   0  0  0  0  0  0  0  0  0  0  0  0
    8.5895    7.4961   25.3843 C   0  0  0  0  0  0  0  0  0  0  0  0
    8.3789    9.7297   22.4827 C   0  0  0  0  0  0  0  0  0  0  0  0
    7.9600    9.4984   21.2565 C   0  0  1  0  0  0  0  0  0  0  0  0
    6.4965    9.1832   21.2802 C   0  0  0  0  0  0  0  0  0  0  0  0
    8.5089   10.4378   20.3432 O   0  0  0  0  0  0  0  0  0  0  0  0
    6.0844    8.3076   22.2695 C   0  0  2  0  0  0  0  0  0  0  0  0
    4.6677    8.2348   22.6404 O   0  0  0  0  0  0  0  0  0  0  0  0
    3.8712    7.2657   22.0607 C   0  0  0  0  0  0  0  0  0  0  0  0
  1  2  1  0
  1  3  1  0
  3  4  1  6
  3  5  1  0
  6  2  1  1
  6  7  1  0
  7  8  1  6
  5  9  1  0
  6  9  1  0
  7 10  1  0
 10 11  1  0
 11 12  1  0
 11 13  1  6
  8 14  1  0
 12 14  1  0
 14 15  1  1
 15 16  1  0
M  END
$$$$
35
     RDKit          3D

 16 18  0  0  0  0  0  0  0  0999 V2000
   10.0425    8.5001   25.1915 C   0  0  0  0  0  0  0  0  0  0  0  0
   10.4373    7.7113   25.9683 C   0  0  0  0  0  0  0  0  0  0  0  0
    8.9463    8.3408   24.5700 C   0  0  2  0  0  0  0  0  0  0  0  0
    9.6577    6.6951   26.5360 C   0  0  2  0  0  0  0  0  0  0  0  0
    8.3425    6.6821   26.0641 C   0  0  0  0  0  0  0  0  0  0  0  0
    8.3997    9.3507   23.5674 C   0  0  0  0  0  0  0  0  0  0  0  0
    7.9683    7.5539   25.0593 C   0  0  2  0  0  0  0  0  0  0  0  0
   10.1515    6.0056   27.6478 N   0  0  0  0  0  0  0  0  0  0  0  0
    6.5829    7.4596   24.3992 C   0  0  1  0  0  0  0  0  0  0  0  0
    5.6921    6.5363   24.8413 O   0  0  0  0  0  0  0  0  0  0  0  0
    6.1103    8.3260   23.4827 C   0  0  1  0  0  0  0  0  0  0  0  0
    4.7004    6.5606   24.0450 C   0  0  0  0  0  0  0  0  0  0  0  0
    7.0832    9.2999   23.0050 C   0  0  0  0  0  0  0  0  0  0  0  0
    4.9289    7.7689   23.0858 C   0  0  1  0  0  0  0  0  0  0  0  0
    3.5298    5.8782   23.9725 O   0  0  0  0  0  0  0  0  0  0  0  0
    3.9521    8.2744   22.1477 O   0  0  0  0  0  0  0  0  0  0  0  0
  1  2  1  0
  3  1  1  1
  2  4  1  0
  4  5  1  0
  3  6  1  0
  3  7  1  0
  7  5  1  6
  4  8  1  1
  7  9  1  0
  9 10  1  1
  9 11  1  0
 10 12  1  0
  6 13  1  0
 11 13  1  6
 11 14  1  0
 12 14  1  0
 12 15  2  0
 14 16  1  1
M  END
$$$$
36
     RDKit          3D

 16 18  0  0  0  0  0  0  0  0999 V2000
   10.0666    6.5793   27.3703 C   0  0  0  0  0  0  0  0  0  0  0  0
   11.1296    7.2240   27.1545 C   0  0  0  0  0  0  0  0  0  0  0  0
    8.8506    6.9299   26.6053 C   0  0  0  0  0  0  0  0  0  0  0  0
    9.3541    7.8479   25.5053 C   0  0  2  0  0  0  0  0  0  0  0  0
   11.2160    7.9833   25.8814 C   0  0  0  0  0  0  0  0  0  0  0  0
   10.2750    8.3831   25.2405 C   0  0  1  0  0  0  0  0  0  0  0  0
   10.4055    9.3133   23.8693 S   0  0  0  0  0  0  0  0  0  0  0  0
    8.0290    8.2386   24.5561 C   0  0  0  0  0  0  0  0  0  0  0  0
    8.7077    9.0208   23.4874 C   0  0  0  0  0  0  0  0  0  0  0  0
    7.8254    9.3061   22.4544 C   0  0  1  0  0  0  0  0  0  0  0  0
    6.5725    8.9048   22.6955 C   0  0  0  0  0  0  0  0  0  0  0  0
    6.7001    8.1250   24.3419 C   0  0  0  0  0  0  0  0  0  0  0  0
    8.1403   10.2405   21.4073 C   0  0  0  0  0  0  0  0  0  0  0  0
    8.3925    9.7133   20.1805 N   0  0  0  0  0  0  0  0  0  0  0  0
    8.8558    8.4592   19.9568 C   0  0  0  0  0  0  0  0  0  0  0  0
    8.0275   10.5413   19.2165 C   0  0  0  0  0  0  0  0  0  0  0  0
  1  2  1  0
  1  3  1  0
  4  3  1  1
  2  5  1  0
  4  6  1  0
  6  5  1  6
  6  7  1  0
  4  8  1  0
  7  9  1  0
  8  9  1  0
  9 10  1  0
 10 11  1  0
  8 12  1  0
 11 12  1  0
 10 13  1  1
 13 14  1  0
 14 15  1  0
 14 16  1  0
M  END
$$$$
37
     RDKit          3D

 16 18  0  0  0  0  0  0  0  0999 V2000
   10.3882    7.1623   27.0729 C   0  0  0  0  0  0  0  0  0  0  0  0
    9.2960    7.0542   26.4025 C   0  0  0  0  0  0  0  0  0  0  0  0
   11.4415    7.6449   26.5732 C   0  0  0  0  0  0  0  0  0  0  0  0
    9.0812    7.7948   25.2086 C   0  0  0  0  0  0  0  0  0  0  0  0
    7.8636    7.9095   24.4491 C   0  0  1  0  0  0  0  0  0  0  0  0
   10.3192    8.4940   24.6507 C   0  0  0  0  0  0  0  0  0  0  0  0
    7.8236    8.5531   23.2770 C   0  0  2  0  0  0  0  0  0  0  0  0
    6.5089    7.2901   24.5909 C   0  0  0  0  0  0  0  0  0  0  0  0
   11.4446    8.5018   25.3953 C   0  0  0  0  0  0  0  0  0  0  0  0
    5.6617    7.7272   23.8281 C   0  0  0  0  0  0  0  0  0  0  0  0
    6.5076    8.5051   22.7353 C   0  0  2  0  0  0  0  0  0  0  0  0
    8.8438    9.2033   22.4398 C   0  0  0  0  0  0  0  0  0  0  0  0
    8.5480    9.5634   21.1458 C   0  0  1  0  0  0  0  0  0  0  0  0
    6.2170    8.7381   21.4378 C   0  0  0  0  0  0  0  0  0  0  0  0
    9.4724   10.0103   20.2533 O   0  0  0  0  0  0  0  0  0  0  0  0
    7.1948    9.2793   20.6223 C   0  0  0  0  0  0  0  0  0  0  0  0
  1  2  1  0
  1  3  1  0
  2  4  1  0
  5  4  1  6
  4  6  1  0
  5  7  1  0
  5  8  1  0
  3  9  1  0
  6  9  1  0
  8 10  1  0
  7 11  1  0
 11 10  1  6
  7 12  1  6
 12 13  1  0
 11 14  1  0
 13 15  1  6
 13 16  1  0
 14 16  1  0
M  END
$$$$
38
     RDKit          3D

 16 18  0  0  0  0  0  0  0  0999 V2000
    8.4335    7.7671   25.4099 C   0  0  0  0  0  0  0  0  0  0  0  0
    9.5492    7.5807   25.6963 C   0  0  1  0  0  0  0  0  0  0  0  0
   10.0040    6.6645   26.8016 C   0  0  0  0  0  0  0  0  0  0  0  0
   10.7215    8.0518   24.8751 C   0  0  2  0  0  0  0  0  0  0  0  0
   12.0418    8.0267   25.4807 C   0  0  0  0  0  0  0  0  0  0  0  0
   11.2840    6.6781   27.3453 C   0  0  0  0  0  0  0  0  0  0  0  0
   12.3656    7.3278   26.5572 C   0  0  0  0  0  0  0  0  0  0  0  0
   10.3300    8.9426   23.7626 C   0  0  0  0  0  0  0  0  0  0  0  0
    8.0841    8.4822   24.2463 C   0  0  2  0  0  0  0  0  0  0  0  0
    9.0245    9.0835   23.4858 C   0  0  0  0  0  0  0  0  0  0  0  0
    8.5730    9.8500   22.3529 N   0  0  0  0  0  0  0  0  0  0  0  0
    6.5353    8.7055   23.9341 C   0  0  2  0  0  0  0  0  0  0  0  0
    7.2857    9.7569   21.9541 C   0  0  0  0  0  0  0  0  0  0  0  0
    5.5740    8.3177   24.8123 N   0  0  0  0  0  0  0  0  0  0  0  0
    6.9555   10.3451   20.7933 O   0  0  0  0  0  0  0  0  0  0  0  0
    6.2546    9.1557   22.7377 N   0  0  0  0  0  0  0  0  0  0  0  0
  2  1  1  6
  2  3  1  0
  2  4  1  0
  4  5  1  1
  3  6  1  0
  5  7  1  0
  6  7  1  0
  4  8  1  0
  9  1  1  1
  8 10  1  0
  9 10  1  0
 10 11  1  0
  9 12  1  0
 11 13  1  0
 12 14  1  6
 13 15  2  0
 12 16  1  0
 13 16  1  0
M  END
$$$$
39
     RDKit          3D

 16 18  0  0  0  0  0  0  0  0999 V2000
   10.0425    8.5001   25.1915 C   0  0  0  0  0  0  0  0  0  0  0  0
   10.4373    7.7113   25.9683 C   0  0  0  0  0  0  0  0  0  0  0  0
    8.9463    8.3408   24.5700 C   0  0  2  0  0  0  0  0  0  0  0  0
    9.6577    6.6951   26.5360 C   0  0  2  0  0  0  0  0  0  0  0  0
    8.3425    6.6821   26.0641 C   0  0  0  0  0  0  0  0  0  0  0  0
    8.3997    9.3507   23.5674 C   0  0  0  0  0  0  0  0  0  0  0  0
    7.9683    7.5539   25.0593 C   0  0  2  0  0  0  0  0  0  0  0  0
   10.1515    6.0056   27.6478 N   0  0  0  0  0  0  0  0  0  0  0  0
    6.5829    7.4596   24.3992 C   0  0  1  0  0  0  0  0  0  0  0  0
    5.6921    6.5363   24.8413 O   0  0  0  0  0  0  0  0  0  0  0  0
    6.2456    8.4238   23.4631 C   0  0  0  0  0  0  0  0  0  0  0  0
    4.6829    6.7015   24.0049 C   0  0  0  0  0  0  0  0  0  0  0  0
    7.1617    9.3290   23.0232 C   0  0  0  0  0  0  0  0  0  0  0  0
    4.8194    8.2368   23.0884 C   0  0  0  0  0  0  0  0  0  0  0  0
    3.4943    6.0814   23.9381 C   0  0  0  0  0  0  0  0  0  0  0  0
    3.0347    5.0089   24.5015 O   0  0  0  0  0  0  0  0  0  0  0  0
  1  2  1  0
  3  1  1  1
  2  4  1  0
  4  5  1  0
  3  6  1  0
  3  7  1  0
  7  5  1  6
  4  8  1  1
  7  9  1  0
  9 10  1  1
  9 11  1  0
 10 12  1  0
  6 13  1  0
 11 13  1  0
 11 14  1  0
 12 14  1  0
 12 15  2  3
 15 16  1  0
M  END
$$$$
4
     RDKit          3D

 12 13  0  0  0  0  0  0  0  0999 V2000
   11.2842    8.6161   25.2737 C   0  0  0  0  0  0  0  0  0  0  0  0
   10.2539    8.9777   24.5222 C   0  0  0  0  0  0  0  0  0  0  0  0
   10.9142    7.6523   26.3175 C   0  0  2  0  0  0  0  0  0  0  0  0
   11.8264    7.1124   27.2873 C   0  0  0  0  0  0  0  0  0  0  0  0
    9.4936    7.2559   26.1751 C   0  0  0  0  0  0  0  0  0  0  0  0
    8.9970    8.6004   24.4309 C   0  0  2  0  0  0  0  0  0  0  0  0
    8.0297    9.1440   23.5139 C   0  0  0  0  0  0  0  0  0  0  0  0
    8.5119    7.6756   25.3239 C   0  0  2  0  0  0  0  0  0  0  0  0
    6.7103    8.8226   23.6904 C   0  0  0  0  0  0  0  0  0  0  0  0
    6.2561    8.1057   24.7580 C   0  0  2  0  0  0  0  0  0  0  0  0
    7.1864    7.3406   25.4322 N   0  0  0  0  0  0  0  0  0  0  0  0
    4.8582    7.8851   24.9408 N   0  0  0  0  0  0  0  0  0  0  0  0
  1  2  1  0
  1  3  1  0
  3  4  1  6
  3  5  1  0
  6  2  1  1
  6  7  1  0
  8  5  1  1
  6  8  1  0
  7  9  1  0
  9 10  1  0
  8 11  1  0
 10 11  1  0
 10 12  1  6
M  END
$$$$
40
     RDKit          3D

 16 18  0  0  0  0  0  0  0  0999 V2000
   11.1806    7.1609   27.2120 C   0  0  0  0  0  0  0  0  0  0  0  0
   11.1115    8.0012   26.1952 C   0  0  0  0  0  0  0  0  0  0  0  0
    9.9863    6.3786   27.3797 C   0  0  0  0  0  0  0  0  0  0  0  0
    8.8502    6.7413   26.5291 C   0  0  0  0  0  0  0  0  0  0  0  0
   10.2222    8.3309   25.2740 C   0  0  1  0  0  0  0  0  0  0  0  0
    9.0522    7.7188   25.4537 C   0  0  0  0  0  0  0  0  0  0  0  0
   10.1246    9.2522   24.1169 C   0  0  0  0  0  0  0  0  0  0  0  0
    7.9094    7.9383   24.6188 C   0  0  1  0  0  0  0  0  0  0  0  0
    9.1414    9.4195   23.3275 C   0  0  0  0  0  0  0  0  0  0  0  0
    7.9670    8.7791   23.5948 C   0  0  0  0  0  0  0  0  0  0  0  0
    6.8229    9.0653   22.7284 C   0  0  0  0  0  0  0  0  0  0  0  0
    5.6452    8.4448   23.0042 C   0  0  1  0  0  0  0  0  0  0  0  0
    4.4953    8.6404   22.1321 O   0  0  0  0  0  0  0  0  0  0  0  0
    5.4728    7.3176   23.8666 C   0  0  0  0  0  0  0  0  0  0  0  0
    3.4293    7.8398   22.4207 C   0  0  0  0  0  0  0  0  0  0  0  0
    6.5908    7.2432   24.6768 N   0  0  0  0  0  0  0  0  0  0  0  0
  1  2  1  0
  1  3  1  0
  3  4  1  0
  5  2  1  1
  4  6  1  0
  5  6  1  0
  5  7  1  0
  6  8  1  0
  7  9  1  0
  8 10  1  0
  9 10  1  0
 10 11  1  0
 11 12  1  0
 12 13  1  6
 12 14  1  0
 13 15  1  0
  8 16  1  6
 14 16  1  0
M  END
$$$$
41
     RDKit          3D

 17 18  0  0  0  0  0  0  0  0999 V2000
    9.6988    6.1577   27.5765 N   0  0  0  0  0  0  0  0  0  0  0  0
    9.0331    6.7007   26.5940 C   0  0  0  0  0  0  0  0  0  0  0  0
   11.0010    6.5957   27.7258 C   0  0  0  0  0  0  0  0  0  0  0  0
   11.5278    7.5342   26.8591 C   0  0  0  0  0  0  0  0  0  0  0  0
   10.8742    8.0879   25.7866 C   0  0  0  0  0  0  0  0  0  0  0  0
    9.5911    7.7855   25.6856 C   0  0  1  0  0  0  0  0  0  0  0  0
    8.6491    8.2807   24.5660 C   0  0  0  0  0  0  0  0  0  0  0  0
    8.9629    9.3882   23.9345 C   0  0  0  0  0  0  0  0  0  0  0  0
    7.3826    7.7144   24.2475 C   0  0  0  0  0  0  0  0  0  0  0  0
    6.7968    8.2529   23.2296 C   0  0  0  0  0  0  0  0  0  0  0  0
    7.9500    9.4965   22.9273 C   0  0  0  0  0  0  0  0  0  0  0  0
    5.6420    8.0668   22.4762 C   0  0  0  0  0  0  0  0  0  0  0  0
    4.4873    8.0645   23.1426 N   0  0  0  0  0  0  0  0  0  0  0  0
    4.2700    8.5604   24.3820 C   0  0  0  0  0  0  0  0  0  0  0  0
    2.9993    8.5283   24.9053 N   0  0  0  0  0  0  0  0  0  0  0  0
    5.1873    9.1632   25.0880 O   0  0  0  0  0  0  0  0  0  0  0  0
    5.7374    8.0260   21.0964 O   0  0  0  0  0  0  0  0  0  0  0  0
  1  2  1  0
  1  3  1  0
  3  4  1  0
  4  5  1  0
  2  6  1  0
  5  6  1  0
  6  7  1  6
  7  8  2  0
  7  9  1  0
  9 10  1  0
  8 11  1  0
 10 11  1  0
 10 12  1  0
 12 13  1  0
 13 14  1  0
 14 15  1  0
 14 16  2  0
 12 17  2  0
M  END
$$$$
42
     RDKit          3D

 17 19  0  0  0  0  0  0  0  0999 V2000
   10.0666    6.5793   27.3703 C   0  0  0  0  0  0  0  0  0  0  0  0
   11.1296    7.2240   27.1545 C   0  0  0  0  0  0  0  0  0  0  0  0
    8.8506    6.9299   26.6053 C   0  0  0  0  0  0  0  0  0  0  0  0
    9.3541    7.8479   25.5053 C   0  0  2  0  0  0  0  0  0  0  0  0
   11.2160    7.9833   25.8814 C   0  0  0  0  0  0  0  0  0  0  0  0
   10.2750    8.3831   25.2405 C   0  0  1  0  0  0  0  0  0  0  0  0
   10.4055    9.3133   23.8693 S   0  0  0  0  0  0  0  0  0  0  0  0
    8.0290    8.2386   24.5561 C   0  0  1  0  0  0  0  0  0  0  0  0
    8.7077    9.0208   23.4874 C   0  0  0  0  0  0  0  0  0  0  0  0
    7.8254    9.3061   22.4544 C   0  0  0  0  0  0  0  0  0  0  0  0
    6.5725    8.9048   22.6955 C   0  0  0  0  0  0  0  0  0  0  0  0
    6.7477    8.1642   24.1883 C   0  0  2  0  0  0  0  0  0  0  0  0
    5.3985    8.9386   22.0582 O   0  0  0  0  0  0  0  0  0  0  0  0
    5.6239    7.6658   24.8150 C   0  0  0  0  0  0  0  0  0  0  0  0
    4.9733    7.7896   21.3505 C   0  0  0  0  0  0  0  0  0  0  0  0
    4.3648    7.8278   24.3055 N   0  0  0  0  0  0  0  0  0  0  0  0
    3.3417    7.7765   25.2781 C   0  0  0  0  0  0  0  0  0  0  0  0
  1  2  1  0
  1  3  1  0
  4  3  1  1
  2  5  1  0
  4  6  1  0
  6  5  1  6
  6  7  1  0
  4  8  1  0
  7  9  1  0
  8  9  1  6
  9 10  1  0
 10 11  1  0
  8 12  1  0
 11 12  1  0
 11 13  1  0
 12 14  1  1
 13 15  1  0
 14 16  1  0
 16 17  1  0
M  END
$$$$
43
     RDKit          3D

 17 19  0  0  0  0  0  0  0  0999 V2000
   10.7154    9.0116   24.3343 C   0  0  0  0  0  0  0  0  0  0  0  0
   10.8012    8.3149   25.4143 C   0  0  0  0  0  0  0  0  0  0  0  0
    9.8816    7.5871   26.0421 C   0  0  2  0  0  0  0  0  0  0  0  0
    9.2801    8.7567   23.7785 C   0  0  1  0  0  0  0  0  0  0  0  0
    8.5422    8.0715   24.4649 C   0  0  0  0  0  0  0  0  0  0  0  0
   10.2997    6.7270   27.2576 C   0  0  0  0  0  0  0  0  0  0  0  0
    9.6523    5.6679   27.5803 N   0  0  0  0  0  0  0  0  0  0  0  0
    8.7934    9.3756   22.4831 C   0  0  1  0  0  0  0  0  0  0  0  0
    9.4926    9.9522   21.5496 N   0  0  0  0  0  0  0  0  0  0  0  0
    7.4514    8.9810   22.2139 C   0  0  2  0  0  0  0  0  0  0  0  0
    8.5877   10.1594   20.5124 C   0  0  0  0  0  0  0  0  0  0  0  0
    7.3652    9.6116   20.9147 N   0  0  0  0  0  0  0  0  0  0  0  0
    6.6462    8.3351   23.0857 C   0  0  0  0  0  0  0  0  0  0  0  0
    8.7111    7.4189   25.5710 C   0  0  0  0  0  0  0  0  0  0  0  0
   11.3914    7.0763   27.9160 N   0  0  0  0  0  0  0  0  0  0  0  0
    7.1063    7.8316   24.2267 C   0  0  0  0  0  0  0  0  0  0  0  0
    6.0816    9.4811   20.1529 C   0  0  0  0  0  0  0  0  0  0  0  0
  1  2  1  0
  2  3  1  0
  4  1  1  1
  4  5  1  0
  3  6  1  6
  6  7  1  0
  4  8  1  0
  8  9  1  6
  8 10  1  0
  9 11  1  0
 10 12  1  0
 11 12  1  0
 10 13  1  1
  3 14  1  0
  5 14  1  0
  6 15  2  0
  5 16  1  0
 13 16  1  0
 12 17  1  0
M  END
$$$$
44
     RDKit          3D

 17 19  0  0  0  0  0  0  0  0999 V2000
   10.0425    8.5001   25.1915 C   0  0  0  0  0  0  0  0  0  0  0  0
   10.4373    7.7113   25.9683 C   0  0  0  0  0  0  0  0  0  0  0  0
    8.9463    8.3408   24.5700 C   0  0  2  0  0  0  0  0  0  0  0  0
    9.6577    6.6951   26.5360 C   0  0  2  0  0  0  0  0  0  0  0  0
    8.3425    6.6821   26.0641 C   0  0  0  0  0  0  0  0  0  0  0  0
    8.3997    9.3507   23.5674 C   0  0  0  0  0  0  0  0  0  0  0  0
    7.9683    7.5539   25.0593 C   0  0  2  0  0  0  0  0  0  0  0  0
   10.1515    6.0056   27.6478 N   0  0  0  0  0  0  0  0  0  0  0  0
    6.5829    7.4596   24.3992 C   0  0  1  0  0  0  0  0  0  0  0  0
    5.6921    6.5363   24.8413 O   0  0  0  0  0  0  0  0  0  0  0  0
    6.1103    8.3260   23.4827 C   0  0  0  0  0  0  0  0  0  0  0  0
    4.8257    8.3777   23.0735 O   0  0  0  0  0  0  0  0  0  0  0  0
    7.0521    9.2858   22.9190 C   0  0  0  0  0  0  0  0  0  0  0  0
    4.0444    7.4803   23.3390 C   0  0  1  0  0  0  0  0  0  0  0  0
    4.4489    6.4695   24.3224 C   0  0  0  0  0  0  0  0  0  0  0  0
    2.7850    7.4498   22.8845 O   0  0  0  0  0  0  0  0  0  0  0  0
    2.3766    8.4557   22.0120 C   0  0  0  0  0  0  0  0  0  0  0  0
  1  2  1  0
  3  1  1  1
  2  4  1  0
  4  5  1  0
  3  6  1  0
  3  7  1  0
  7  5  1  6
  4  8  1  1
  7  9  1  0
  9 10  1  1
  9 11  1  0
 11 12  1  0
  6 13  1  0
 11 13  1  0
 12 14  1  0
 10 15  1  0
 14 15  1  0
 14 16  1  1
 16 17  1  0
M  END
$$$$
45
     RDKit          3D

 17 18  0  0  0  0  0  0  0  0999 V2000
   10.7154    9.0116   24.3343 C   0  0  0  0  0  0  0  0  0  0  0  0
   10.8012    8.3149   25.4143 C   0  0  0  0  0  0  0  0  0  0  0  0
    9.4619    8.9330   23.5825 C   0  0  0  0  0  0  0  0  0  0  0  0
    9.6074    7.5840   25.8245 C   0  0  1  0  0  0  0  0  0  0  0  0
    8.4567    7.5573   25.0932 C   0  0  0  0  0  0  0  0  0  0  0  0
    8.4872    8.3326   23.9869 C   0  0  0  0  0  0  0  0  0  0  0  0
    9.9057    6.6707   27.2009 C   0  0  0  0  0  0  0  0  0  0  0  0
    7.0426    8.3683   23.1821 C   0  0  1  0  0  0  0  0  0  0  0  0
   11.1389    6.5883   27.6151 N   0  0  0  0  0  0  0  0  0  0  0  0
    7.1618    8.5835   21.9231 C   0  0  1  0  0  0  0  0  0  0  0  0
    6.0798    7.4505   23.7810 C   0  0  1  0  0  0  0  0  0  0  0  0
    5.9135    8.4525   21.1854 C   0  0  0  0  0  0  0  0  0  0  0  0
    8.2343    9.2676   21.1214 C   0  0  0  0  0  0  0  0  0  0  0  0
    5.9924    7.3443   25.1900 O   0  0  0  0  0  0  0  0  0  0  0  0
    4.9113    7.6181   23.0740 C   0  0  0  0  0  0  0  0  0  0  0  0
    4.7927    7.8788   21.7702 C   0  0  0  0  0  0  0  0  0  0  0  0
    9.0081    8.3432   20.3686 C   0  0  0  0  0  0  0  0  0  0  0  0
  1  2  1  0
  1  3  1  0
  2  4  1  0
  4  5  1  0
  3  6  1  0
  5  6  1  0
  4  7  1  6
  8  6  1  6
  7  9  1  0
  8 10  1  0
  8 11  1  0
 10 12  1  0
 10 13  1  1
 11 14  1  1
 11 15  1  0
 12 16  1  0
 15 16  1  0
 13 17  1  0
M  END
$$$$
46
     RDKit          3D

 17 19  0  0  0  0  0  0  0  0999 V2000
   10.0425    8.5001   25.1915 C   0  0  1  0  0  0  0  0  0  0  0  0
   10.4373    7.7113   25.9683 C   0  0  0  0  0  0  0  0  0  0  0  0
    9.6295    6.7549   26.6024 C   0  0  2  0  0  0  0  0  0  0  0  0
   10.8986    9.3599   24.2931 C   0  0  0  0  0  0  0  0  0  0  0  0
    8.7452    8.0991   24.5625 C   0  0  2  0  0  0  0  0  0  0  0  0
    8.0948    8.9702   23.5044 C   0  0  0  0  0  0  0  0  0  0  0  0
    7.9825    7.3185   25.2400 C   0  0  1  0  0  0  0  0  0  0  0  0
    8.4785    6.5396   26.2350 C   0  0  0  0  0  0  0  0  0  0  0  0
   10.3412    6.1398   27.7739 N   0  0  0  0  0  0  0  0  0  0  0  0
    8.9863    9.7624   22.7171 N   0  0  0  0  0  0  0  0  0  0  0  0
    8.5367   10.2249   21.4776 C   0  0  0  0  0  0  0  0  0  0  0  0
   10.3421    9.8772   23.0347 C   0  0  0  0  0  0  0  0  0  0  0  0
    9.0141    9.8949   20.3503 O   0  0  0  0  0  0  0  0  0  0  0  0
    7.4479   11.2109   21.6067 O   0  0  0  0  0  0  0  0  0  0  0  0
    6.7450    8.9576   23.3103 C   0  0  0  0  0  0  0  0  0  0  0  0
    5.7915    8.5294   24.3378 C   0  0  0  0  0  0  0  0  0  0  0  0
    6.4679    7.6136   25.1069 C   0  0  0  0  0  0  0  0  0  0  0  0
  1  2  1  6
  2  3  1  0
  1  4  1  0
  1  5  1  0
  5  6  1  1
  5  7  1  0
  3  8  1  0
  7  8  1  1
  3  9  1  1
  6 10  1  0
 10 11  1  0
  4 12  1  0
 10 12  1  0
 11 13  2  0
 11 14  1  0
  6 15  1  0
 15 16  1  0
  7 17  1  0
 16 17  1  0
M  END
$$$$
47
     RDKit          3D

 17 19  0  0  0  0  0  0  0  0999 V2000
   11.2842    8.6161   25.2737 C   0  0  0  0  0  0  0  0  0  0  0  0
   10.2539    8.9777   24.5222 C   0  0  0  0  0  0  0  0  0  0  0  0
    8.9858    8.4706   24.5016 C   0  0  0  0  0  0  0  0  0  0  0  0
    8.8872    7.6456   25.4445 C   0  0  0  0  0  0  0  0  0  0  0  0
   10.9869    7.7049   26.3345 C   0  0  0  0  0  0  0  0  0  0  0  0
    9.7813    7.2433   26.3877 C   0  0  0  0  0  0  0  0  0  0  0  0
    8.0136    8.8982   23.5638 C   0  0  1  0  0  0  0  0  0  0  0  0
    8.3274    9.5545   22.4025 C   0  0  0  0  0  0  0  0  0  0  0  0
    6.8089    7.9765   23.4193 C   0  0  1  0  0  0  0  0  0  0  0  0
    6.2008    7.4808   24.5445 C   0  0  0  0  0  0  0  0  0  0  0  0
    4.7432    7.9882   24.6445 C   0  0  0  0  0  0  0  0  0  0  0  0
    5.9082    8.4083   22.4306 C   0  0  1  0  0  0  0  0  0  0  0  0
    6.3536    8.6820   21.1030 C   0  0  0  0  0  0  0  0  0  0  0  0
    4.5259    8.2687   22.8877 C   0  0  0  0  0  0  0  0  0  0  0  0
    7.6305    9.4841   21.1688 C   0  0  0  0  0  0  0  0  0  0  0  0
    8.0695   10.0691   19.9700 O   0  0  0  0  0  0  0  0  0  0  0  0
    7.2472    9.9808   18.8993 C   0  0  0  0  0  0  0  0  0  0  0  0
  1  2  1  0
  2  3  1  0
  3  4  1  0
  1  5  1  0
  4  6  1  0
  5  6  1  0
  7  3  1  6
  7  8  1  0
  7  9  1  0
  9 10  1  1
 10 11  1  0
  9 12  1  0
 12 13  1  6
 11 14  1  0
 12 14  1  0
  8 15  1  0
 13 15  1  0
 15 16  1  0
 16 17  1  0
M  END
$$$$
48
     RDKit          3D

 17 19  0  0  0  0  0  0  0  0999 V2000
   10.3882    7.1623   27.0729 C   0  0  0  0  0  0  0  0  0  0  0  0
    9.2960    7.0542   26.4025 C   0  0  0  0  0  0  0  0  0  0  0  0
   11.4415    7.6449   26.5732 C   0  0  0  0  0  0  0  0  0  0  0  0
    9.0812    7.7948   25.2086 C   0  0  0  0  0  0  0  0  0  0  0  0
    7.8636    7.9095   24.4491 C   0  0  1  0  0  0  0  0  0  0  0  0
   10.3192    8.4940   24.6507 C   0  0  0  0  0  0  0  0  0  0  0  0
    7.8236    8.5531   23.2770 C   0  0  2  0  0  0  0  0  0  0  0  0
    6.5089    7.2901   24.5909 C   0  0  0  0  0  0  0  0  0  0  0  0
   11.4446    8.5018   25.3953 C   0  0  0  0  0  0  0  0  0  0  0  0
    5.6617    7.7272   23.8281 C   0  0  0  0  0  0  0  0  0  0  0  0
    6.5076    8.5051   22.7353 C   0  0  1  0  0  0  0  0  0  0  0  0
    5.9266    9.1159   21.5626 N   0  0  0  0  0  0  0  0  0  0  0  0
    8.8315    9.1644   22.3822 C   0  0  0  0  0  0  0  0  0  0  0  0
    6.9989    9.5884   20.8213 C   0  0  1  0  0  0  0  0  0  0  0  0
    6.6752   10.2027   19.5746 C   0  0  0  0  0  0  0  0  0  0  0  0
    8.3634    9.5934   21.1912 C   0  0  0  0  0  0  0  0  0  0  0  0
    7.4121    9.9622   18.4617 C   0  0  0  0  0  0  0  0  0  0  0  0
  1  2  1  0
  1  3  1  0
  2  4  1  0
  5  4  1  6
  4  6  1  0
  5  7  1  0
  5  8  1  0
  3  9  1  0
  6  9  1  0
  8 10  1  0
  7 11  1  0
 11 10  1  1
 11 12  1  0
  7 13  1  6
 12 14  1  0
 14 15  1  1
 13 16  1  0
 14 16  1  0
 15 17  1  0
M  END
$$$$
49
     RDKit          3D

 17 19  0  0  0  0  0  0  0  0999 V2000
   10.0425    8.5001   25.1915 C   0  0  0  0  0  0  0  0  0  0  0  0
   10.4373    7.7113   25.9683 C   0  0  2  0  0  0  0  0  0  0  0  0
    8.9463    8.3408   24.5700 C   0  0  2  0  0  0  0  0  0  0  0  0
    8.3011    9.1947   23.5814 C   0  0  0  0  0  0  0  0  0  0  0  0
    6.8925    8.8419   23.1813 C   0  0  0  0  0  0  0  0  0  0  0  0
    8.2091    7.4256   25.2159 C   0  0  1  0  0  0  0  0  0  0  0  0
    6.9287    7.1869   24.8393 N   0  0  0  0  0  0  0  0  0  0  0  0
    6.2908    7.8245   23.8658 C   0  0  1  0  0  0  0  0  0  0  0  0
    4.7663    7.5212   23.6546 C   0  0  0  0  0  0  0  0  0  0  0  0
    9.1548    6.8317   26.0756 N   0  0  0  0  0  0  0  0  0  0  0  0
   11.3524    7.2017   27.0271 C   0  0  0  0  0  0  0  0  0  0  0  0
    4.0065    7.9519   24.4516 C   0  0  0  0  0  0  0  0  0  0  0  0
    2.5811    7.5771   24.3460 C   0  0  0  0  0  0  0  0  0  0  0  0
    2.2532    6.7550   23.3087 C   0  0  0  0  0  0  0  0  0  0  0  0
    4.5039    6.7896   22.4332 C   0  0  0  0  0  0  0  0  0  0  0  0
    0.8500    6.3361   23.2306 C   0  0  0  0  0  0  0  0  0  0  0  0
    3.1846    6.3466   22.4065 C   0  0  0  0  0  0  0  0  0  0  0  0
  1  2  1  0
  3  1  1  1
  3  4  1  0
  4  5  1  0
  3  6  1  0
  6  7  1  6
  5  8  1  0
  7  8  1  0
  8  9  1  1
  2 10  1  0
  6 10  1  0
  2 11  1  1
  9 12  1  0
 12 13  1  0
 13 14  1  0
  9 15  1  0
 14 16  1  0
 14 17  1  0
 15 17  1  0
M  END
$$$$
5
     RDKit          3D

 12 13  0  0  0  0  0  0  0  0999 V2000
   10.1071    6.7895   27.1526 C   0  0  0  0  0  0  0  0  0  0  0  0
   11.2788    7.4425   27.0295 C   0  0  0  0  0  0  0  0  0  0  0  0
   11.0916    8.1301   25.7795 C   0  0  0  0  0  0  0  0  0  0  0  0
   10.1402    8.4173   24.9693 C   0  0  0  0  0  0  0  0  0  0  0  0
    8.8637    6.9829   26.4294 C   0  0  0  0  0  0  0  0  0  0  0  0
    9.0459    7.8396   25.2365 C   0  0  0  0  0  0  0  0  0  0  0  0
    7.6426    7.9290   24.3997 C   0  0  2  0  0  0  0  0  0  0  0  0
    7.5691    9.0727   23.6410 C   0  0  0  0  0  0  0  0  0  0  0  0
    6.4113    7.4479   24.7044 N   0  0  0  0  0  0  0  0  0  0  0  0
    5.5764    8.0213   23.9130 C   0  0  0  0  0  0  0  0  0  0  0  0
    6.2181    8.9946   23.1405 N   0  0  0  0  0  0  0  0  0  0  0  0
    4.2381    7.8057   23.7654 N   0  0  0  0  0  0  0  0  0  0  0  0
  1  2  1  0
  2  3  1  0
  3  4  1  0
  1  5  1  0
  4  6  1  0
  5  6  1  0
  7  6  1  1
  7  8  1  0
  7  9  1  0
  9 10  1  0
  8 11  1  0
 10 11  1  0
 10 12  1  0
M  END
$$$$
50
     RDKit          3D

 17 18  0  0  0  0  0  0  0  0999 V2000
   11.2842    8.6161   25.2737 C   0  0  0  0  0  0  0  0  0  0  0  0
   10.2539    8.9777   24.5222 C   0  0  0  0  0  0  0  0  0  0  0  0
   10.9142    7.6523   26.3175 C   0  0  2  0  0  0  0  0  0  0  0  0
   11.8264    7.1124   27.2873 C   0  0  0  0  0  0  0  0  0  0  0  0
    9.4936    7.2559   26.1751 C   0  0  0  0  0  0  0  0  0  0  0  0
    9.0287    8.3612   24.5651 C   0  0  2  0  0  0  0  0  0  0  0  0
    8.0404    8.9710   23.5567 C   0  0  2  0  0  0  0  0  0  0  0  0
    6.6742    8.5585   23.7384 C   0  0  2  0  0  0  0  0  0  0  0  0
    8.5895    7.4961   25.3843 C   0  0  0  0  0  0  0  0  0  0  0  0
    8.3789    9.7297   22.4827 C   0  0  0  0  0  0  0  0  0  0  0  0
    7.9600    9.4984   21.2565 C   0  0  1  0  0  0  0  0  0  0  0  0
    6.4965    9.1832   21.2802 C   0  0  0  0  0  0  0  0  0  0  0  0
    8.5089   10.4378   20.3432 O   0  0  0  0  0  0  0  0  0  0  0  0
    6.0062    8.1870   24.8686 C   0  0  0  0  0  0  0  0  0  0  0  0
    6.1240    8.2578   22.2287 C   0  0  0  0  0  0  0  0  0  0  0  0
    5.2437    7.0653   24.7915 O   0  0  0  0  0  0  0  0  0  0  0  0
    5.4135    9.2220   25.4597 O   0  0  0  0  0  0  0  0  0  0  0  0
  1  2  1  0
  1  3  1  0
  3  4  1  6
  3  5  1  0
  6  2  1  1
  6  7  1  0
  7  8  1  0
  5  9  1  0
  6  9  1  0
  7 10  1  6
 10 11  1  0
 11 12  1  0
 11 13  1  6
  8 14  1  1
  8 15  1  0
 12 15  1  0
 14 16  2  0
 14 17  1  0
M  END
$$$$
51
     RDKit          3D

 17 19  0  0  0  0  0  0  0  0999 V2000
   10.0425    8.5001   25.1915 C   0  0  0  0  0  0  0  0  0  0  0  0
   10.4373    7.7113   25.9683 C   0  0  0  0  0  0  0  0  0  0  0  0
    8.9463    8.3408   24.5700 C   0  0  2  0  0  0  0  0  0  0  0  0
    9.6577    6.6951   26.5360 C   0  0  2  0  0  0  0  0  0  0  0  0
    8.3425    6.6821   26.0641 C   0  0  0  0  0  0  0  0  0  0  0  0
    8.3997    9.3507   23.5674 C   0  0  0  0  0  0  0  0  0  0  0  0
    7.9683    7.5539   25.0593 C   0  0  2  0  0  0  0  0  0  0  0  0
   10.1515    6.0056   27.6478 N   0  0  0  0  0  0  0  0  0  0  0  0
    6.5829    7.4596   24.3992 C   0  0  1  0  0  0  0  0  0  0  0  0
    5.6921    6.5363   24.8413 O   0  0  0  0  0  0  0  0  0  0  0  0
    6.2456    8.4238   23.4631 C   0  0  1  0  0  0  0  0  0  0  0  0
    4.6829    6.7015   24.0049 C   0  0  1  0  0  0  0  0  0  0  0  0
    7.1617    9.3290   23.0232 C   0  0  0  0  0  0  0  0  0  0  0  0
    3.5217    6.1514   24.0312 C   0  0  0  0  0  0  0  0  0  0  0  0
    4.9826    7.9262   23.0892 C   0  0  0  0  0  0  0  0  0  0  0  0
    3.2493    5.0380   24.6511 O   0  0  0  0  0  0  0  0  0  0  0  0
    2.3250    6.6637   23.3366 O   0  0  0  0  0  0  0  0  0  0  0  0
  1  2  1  0
  3  1  1  1
  2  4  1  0
  4  5  1  0
  3  6  1  0
  3  7  1  0
  7  5  1  6
  4  8  1  1
  7  9  1  0
  9 10  1  1
  9 11  1  0
 10 12  1  0
  6 13  1  0
 11 13  1  6
 12 14  1  1
 11 15  1  0
 12 15  1  0
 14 16  1  0
 14 17  2  0
M  END
$$$$
52
     RDKit          3D

 17 18  0  0  0  0  0  0  0  0999 V2000
   10.5498    9.1253   24.2687 C   0  0  0  0  0  0  0  0  0  0  0  0
    9.3361    9.0294   23.6860 C   0  0  0  0  0  0  0  0  0  0  0  0
   10.8878    8.4209   25.3915 C   0  0  0  0  0  0  0  0  0  0  0  0
    9.9116    7.5628   25.9718 C   0  0  0  0  0  0  0  0  0  0  0  0
    8.3842    8.2008   24.2914 C   0  0  0  0  0  0  0  0  0  0  0  0
    8.6924    7.4404   25.4508 C   0  0  0  0  0  0  0  0  0  0  0  0
   10.3056    6.7520   27.1661 C   0  0  0  0  0  0  0  0  0  0  0  0
    7.0094    8.0196   23.7384 C   0  0  0  0  0  0  0  0  0  0  0  0
    6.1040    7.2647   24.2932 N   0  0  0  0  0  0  0  0  0  0  0  0
    6.6792    8.4914   22.5519 O   0  0  0  0  0  0  0  0  0  0  0  0
    4.8143    7.0525   23.6940 C   0  0  2  0  0  0  0  0  0  0  0  0
    3.7180    7.2237   24.5751 C   0  0  1  0  0  0  0  0  0  0  0  0
    3.8355    8.2541   25.5489 C   0  0  0  0  0  0  0  0  0  0  0  0
    2.4939    6.6216   24.3030 C   0  0  0  0  0  0  0  0  0  0  0  0
    2.3082    5.5596   23.3484 C   0  0  0  0  0  0  0  0  0  0  0  0
    4.7297    5.6777   22.9680 C   0  0  0  0  0  0  0  0  0  0  0  0
    3.5089    5.1668   22.7046 C   0  0  0  0  0  0  0  0  0  0  0  0
  1  2  1  0
  1  3  1  0
  3  4  1  0
  2  5  1  0
  4  6  1  0
  5  6  1  0
  4  7  1  0
  5  8  1  0
  8  9  1  0
  8 10  2  0
 11  9  1  1
 11 12  1  0
 12 13  1  6
 12 14  1  0
 14 15  1  0
 11 16  1  0
 15 17  1  0
 16 17  1  0
M  END
$$$$
53
     RDKit          3D

 18 20  0  0  0  0  0  0  0  0999 V2000
   11.0117    7.1005   27.4530 C   0  0  0  0  0  0  0  0  0  0  0  0
   10.9736    8.0523   26.5476 C   0  0  0  0  0  0  0  0  0  0  0  0
    9.9254    8.1617   25.5660 C   0  0  0  0  0  0  0  0  0  0  0  0
    9.8614    9.1433   24.5242 C   0  0  0  0  0  0  0  0  0  0  0  0
    8.8971    7.1130   25.5150 C   0  0  0  0  0  0  0  0  0  0  0  0
    7.9789    7.4143   24.5094 C   0  0  0  0  0  0  0  0  0  0  0  0
    8.0128    8.3525   23.5680 C   0  0  0  0  0  0  0  0  0  0  0  0
    9.9049    6.3224   27.8144 N   0  0  0  0  0  0  0  0  0  0  0  0
    6.9316    8.4356   22.5019 C   0  0  0  0  0  0  0  0  0  0  0  0
    9.0274    9.2778   23.6004 C   0  0  0  0  0  0  0  0  0  0  0  0
    7.0343    9.3390   21.6071 N   0  0  0  0  0  0  0  0  0  0  0  0
    5.7735    7.7798   22.4374 C   0  0  1  0  0  0  0  0  0  0  0  0
    5.1039    8.0453   21.2472 C   0  0  0  0  0  0  0  0  0  0  0  0
    5.2101    6.7742   23.4266 C   0  0  0  0  0  0  0  0  0  0  0  0
    5.9530    9.0787   20.7153 N   0  0  0  0  0  0  0  0  0  0  0  0
    4.0709    6.0483   23.1255 C   0  0  0  0  0  0  0  0  0  0  0  0
    3.8549    7.5235   20.8148 C   0  0  0  0  0  0  0  0  0  0  0  0
    3.3450    6.5186   21.7983 C   0  0  0  0  0  0  0  0  0  0  0  0
  1  2  1  0
  2  3  1  0
  3  4  1  0
  3  5  1  0
  5  6  1  0
  6  7  1  0
  1  8  1  0
  7  9  1  0
  4 10  1  0
  7 10  1  0
  9 11  2  0
  9 12  1  0
 12 13  1  0
 12 14  1  6
 11 15  1  0
 13 15  2  0
 14 16  1  0
 13 17  1  0
 16 18  1  0
 17 18  1  0
M  END
$$$$
54
     RDKit          3D

 18 21  0  0  0  0  0  0  0  0999 V2000
   10.6189    6.7253   27.4098 C   0  0  0  0  0  0  0  0  0  0  0  0
   11.1757    7.7599   26.7022 C   0  0  0  0  0  0  0  0  0  0  0  0
    9.2905    6.4645   27.0024 N   0  0  0  0  0  0  0  0  0  0  0  0
    9.0465    7.2604   25.8992 C   0  0  2  0  0  0  0  0  0  0  0  0
    7.9613    7.3388   25.0666 N   0  0  0  0  0  0  0  0  0  0  0  0
    7.8471    8.1173   24.0029 C   0  0  1  0  0  0  0  0  0  0  0  0
   10.1415    8.1117   25.4220 C   0  0  1  0  0  0  0  0  0  0  0  0
    6.5994    8.1616   23.2256 C   0  0  2  0  0  0  0  0  0  0  0  0
    8.9056    9.0613   23.7389 C   0  0  0  0  0  0  0  0  0  0  0  0
    5.4356    8.1625   23.7710 C   0  0  0  0  0  0  0  0  0  0  0  0
   10.2055    8.9763   24.4669 C   0  0  0  0  0  0  0  0  0  0  0  0
    6.7434    8.0280   21.8129 C   0  0  2  0  0  0  0  0  0  0  0  0
    5.5299    7.9581   21.0540 C   0  0  2  0  0  0  0  0  0  0  0  0
    7.6821    7.8163   20.9563 O   0  0  0  0  0  0  0  0  0  0  0  0
    4.2684    8.0345   21.7229 C   0  0  0  0  0  0  0  0  0  0  0  0
    4.3230    8.1469   23.0770 C   0  0  0  0  0  0  0  0  0  0  0  0
    5.9222    7.6748   19.7973 N   0  0  0  0  0  0  0  0  0  0  0  0
    7.2827    7.6531   19.7760 C   0  0  0  0  0  0  0  0  0  0  0  0
  1  2  1  0
  1  3  1  0
  4  3  1  6
  4  5  1  0
  5  6  1  0
  7  2  1  1
  4  7  1  0
  6  8  1  0
  6  9  1  1
  8 10  1  1
  7 11  1  0
  9 11  1  0
  8 12  1  0
 12 13  1  0
 12 14  1  1
 13 15  1  1
 10 16  1  0
 15 16  1  0
 13 17  1  0
 14 18  1  0
 17 18  1  0
M  END
$$$$
55
     RDKit          3D

 18 20  0  0  0  0  0  0  0  0999 V2000
   11.2884    7.3184   26.9534 C   0  0  0  0  0  0  0  0  0  0  0  0
   11.1435    8.2501   26.0667 C   0  0  0  0  0  0  0  0  0  0  0  0
   10.1275    8.5501   25.1939 C   0  0  2  0  0  0  0  0  0  0  0  0
   10.0487    6.5954   27.1984 C   0  0  0  0  0  0  0  0  0  0  0  0
    8.9498    6.9942   26.3270 C   0  0  0  0  0  0  0  0  0  0  0  0
    9.0674    7.9443   25.3687 C   0  0  0  0  0  0  0  0  0  0  0  0
    7.9976    8.3110   24.4730 C   0  0  2  0  0  0  0  0  0  0  0  0
    6.6565    7.8694   24.5211 N   0  0  0  0  0  0  0  0  0  0  0  0
    8.1605    9.0556   23.3305 C   0  0  1  0  0  0  0  0  0  0  0  0
    9.3343    9.5556   22.7406 C   0  0  0  0  0  0  0  0  0  0  0  0
   10.4716    9.5317   24.0022 C   0  0  0  0  0  0  0  0  0  0  0  0
    6.8959    8.8896   22.6731 C   0  0  1  0  0  0  0  0  0  0  0  0
    6.0679    8.2712   23.4353 C   0  0  0  0  0  0  0  0  0  0  0  0
    6.6223    9.6754   21.4400 O   0  0  0  0  0  0  0  0  0  0  0  0
    4.6073    8.2569   23.0766 O   0  0  0  0  0  0  0  0  0  0  0  0
    7.2083    9.2156   20.2833 C   0  0  1  0  0  0  0  0  0  0  0  0
    7.3069    9.9900   19.2765 C   0  0  0  0  0  0  0  0  0  0  0  0
    8.4760    8.5099   20.5228 O   0  0  0  0  0  0  0  0  0  0  0  0
  1  2  1  0
  3  2  1  6
  1  4  1  0
  4  5  1  0
  3  6  1  0
  5  6  1  0
  6  7  1  0
  7  8  1  6
  7  9  1  0
  9 10  1  6
  3 11  1  0
 10 11  1  0
  9 12  1  0
  8 13  1  0
 12 13  1  0
 12 14  1  1
 13 15  2  0
 14 16  1  0
 16 17  1  6
 16 18  1  0
M  END
$$$$
56
     RDKit          3D

 18 20  0  0  0  0  0  0  0  0999 V2000
   10.0666    6.5793   27.3703 C   0  0  0  0  0  0  0  0  0  0  0  0
   11.1296    7.2240   27.1545 C   0  0  0  0  0  0  0  0  0  0  0  0
    8.8506    6.9299   26.6053 C   0  0  0  0  0  0  0  0  0  0  0  0
    9.3541    7.8479   25.5053 C   0  0  2  0  0  0  0  0  0  0  0  0
   11.2160    7.9833   25.8814 C   0  0  0  0  0  0  0  0  0  0  0  0
   10.2750    8.3831   25.2405 C   0  0  1  0  0  0  0  0  0  0  0  0
   10.4055    9.3133   23.8693 S   0  0  0  0  0  0  0  0  0  0  0  0
    8.0290    8.2386   24.5561 C   0  0  0  0  0  0  0  0  0  0  0  0
    8.7077    9.0208   23.4874 C   0  0  0  0  0  0  0  0  0  0  0  0
    7.8254    9.3061   22.4544 C   0  0  1  0  0  0  0  0  0  0  0  0
    6.5725    8.9048   22.6955 C   0  0  0  0  0  0  0  0  0  0  0  0
    6.7001    8.1250   24.3419 C   0  0  0  0  0  0  0  0  0  0  0  0
    8.1403   10.2405   21.4073 C   0  0  0  0  0  0  0  0  0  0  0  0
    7.2170   10.5224   20.4668 O   0  0  0  0  0  0  0  0  0  0  0  0
    9.1835   10.8968   21.4048 O   0  0  0  0  0  0  0  0  0  0  0  0
    7.5391   11.0263   19.1754 C   0  0  0  0  0  0  0  0  0  0  0  0
    7.1088   10.0352   18.1420 C   0  0  0  0  0  0  0  0  0  0  0  0
    7.5145    8.6943   18.3474 N   0  0  0  0  0  0  0  0  0  0  0  0
  1  2  1  0
  1  3  1  0
  4  3  1  1
  2  5  1  0
  4  6  1  0
  6  5  1  6
  6  7  1  0
  4  8  1  0
  7  9  1  0
  8  9  1  0
  9 10  1  0
 10 11  1  0
  8 12  1  0
 11 12  1  0
 10 13  1  1
 13 14  1  0
 13 15  2  0
 14 16  1  0
 16 17  1  0
 17 18  1  0
M  END
$$$$
57
     RDKit          3D

 18 21  0  0  0  0  0  0  0  0999 V2000
   11.1806    7.1609   27.2120 C   0  0  0  0  0  0  0  0  0  0  0  0
   11.1115    8.0012   26.1952 C   0  0  0  0  0  0  0  0  0  0  0  0
    9.9863    6.3786   27.3797 C   0  0  0  0  0  0  0  0  0  0  0  0
    8.8502    6.7413   26.5291 C   0  0  0  0  0  0  0  0  0  0  0  0
   10.2222    8.3309   25.2740 C   0  0  1  0  0  0  0  0  0  0  0  0
    9.0522    7.7188   25.4537 C   0  0  0  0  0  0  0  0  0  0  0  0
   10.1246    9.2522   24.1169 C   0  0  0  0  0  0  0  0  0  0  0  0
    7.9094    7.9383   24.6188 C   0  0  2  0  0  0  0  0  0  0  0  0
    9.1414    9.4195   23.3275 C   0  0  0  0  0  0  0  0  0  0  0  0
    7.9670    8.7791   23.5948 C   0  0  0  0  0  0  0  0  0  0  0  0
    6.8229    9.0653   22.7284 C   0  0  0  0  0  0  0  0  0  0  0  0
    5.6452    8.4448   23.0042 C   0  0  1  0  0  0  0  0  0  0  0  0
    4.4953    8.6404   22.1321 O   0  0  0  0  0  0  0  0  0  0  0  0
    5.4728    7.3176   23.8666 C   0  0  2  0  0  0  0  0  0  0  0  0
    3.4293    7.8398   22.4207 C   0  0  0  0  0  0  0  0  0  0  0  0
    4.3021    6.7216   24.0593 N   0  0  0  0  0  0  0  0  0  0  0  0
    6.6186    7.1835   25.0429 C   0  0  0  0  0  0  0  0  0  0  0  0
    3.3100    6.8767   23.3000 C   0  0  0  0  0  0  0  0  0  0  0  0
  1  2  1  0
  1  3  1  0
  3  4  1  0
  5  2  1  1
  4  6  1  0
  5  6  1  0
  5  7  1  0
  6  8  1  0
  7  9  1  0
  8 10  1  0
  9 10  1  0
 10 11  1  0
 12 11  1  6
 12 13  1  0
 12 14  1  0
 13 15  1  0
 14 16  1  0
  8 17  1  1
 14 17  1  1
 15 18  1  0
 16 18  1  0
M  END
$$$$
58
     RDKit          3D

 18 20  0  0  0  0  0  0  0  0999 V2000
   11.2842    8.6161   25.2737 C   0  0  0  0  0  0  0  0  0  0  0  0
   10.2539    8.9777   24.5222 C   0  0  0  0  0  0  0  0  0  0  0  0
   10.9142    7.6523   26.3175 C   0  0  0  0  0  0  0  0  0  0  0  0
   11.8264    7.1124   27.2873 C   0  0  0  0  0  0  0  0  0  0  0  0
    9.5204    7.1810   26.4279 C   0  0  0  0  0  0  0  0  0  0  0  0
    8.9615    8.5645   24.5312 C   0  0  0  0  0  0  0  0  0  0  0  0
    8.6429    7.6969   25.4883 C   0  0  0  0  0  0  0  0  0  0  0  0
    7.9551    9.0692   23.5970 C   0  0  1  0  0  0  0  0  0  0  0  0
    8.4003    9.6603   22.4447 N   0  0  0  0  0  0  0  0  0  0  0  0
    8.0797    9.1808   21.1688 C   0  0  0  0  0  0  0  0  0  0  0  0
    6.9474    8.4184   21.1904 C   0  0  2  0  0  0  0  0  0  0  0  0
    8.5270    9.4043   20.1699 O   0  0  0  0  0  0  0  0  0  0  0  0
    6.2558    7.9727   22.3468 C   0  0  2  0  0  0  0  0  0  0  0  0
    5.0195    7.3495   22.3238 C   0  0  0  0  0  0  0  0  0  0  0  0
    6.6829    8.6102   23.5764 N   0  0  0  0  0  0  0  0  0  0  0  0
    4.6921    6.8601   21.0079 C   0  0  0  0  0  0  0  0  0  0  0  0
    5.4742    7.1347   19.9562 C   0  0  0  0  0  0  0  0  0  0  0  0
    6.6042    7.8476   20.0615 C   0  0  0  0  0  0  0  0  0  0  0  0
  1  2  1  0
  1  3  1  0
  3  4  1  0
  3  5  1  0
  2  6  1  0
  5  7  1  0
  6  7  1  0
  8  6  1  6
  8  9  1  0
  9 10  1  0
 10 11  1  0
 10 12  2  0
 11 13  1  0
 13 14  1  6
  8 15  1  0
 13 15  1  0
 14 16  1  0
 16 17  1  0
 11 18  1  6
 17 18  1  0
M  END
$$$$
59
     RDKit          3D

 18 19  0  0  0  0  0  0  0  0999 V2000
   11.2842    8.6161   25.2737 C   0  0  0  0  0  0  0  0  0  0  0  0
   10.2539    8.9777   24.5222 C   0  0  0  0  0  0  0  0  0  0  0  0
   10.9142    7.6523   26.3175 C   0  0  2  0  0  0  0  0  0  0  0  0
   11.8264    7.1124   27.2873 C   0  0  0  0  0  0  0  0  0  0  0  0
    9.4936    7.2559   26.1751 C   0  0  0  0  0  0  0  0  0  0  0  0
    9.0287    8.3612   24.5651 C   0  0  2  0  0  0  0  0  0  0  0  0
    8.0404    8.9710   23.5567 C   0  0  2  0  0  0  0  0  0  0  0  0
    6.6742    8.5585   23.7384 C   0  0  0  0  0  0  0  0  0  0  0  0
    8.5895    7.4961   25.3843 C   0  0  0  0  0  0  0  0  0  0  0  0
    8.3789    9.7297   22.4827 C   0  0  0  0  0  0  0  0  0  0  0  0
    7.9600    9.4984   21.2565 C   0  0  1  0  0  0  0  0  0  0  0  0
    6.4965    9.1832   21.2802 C   0  0  0  0  0  0  0  0  0  0  0  0
    8.5089   10.4378   20.3432 O   0  0  0  0  0  0  0  0  0  0  0  0
    6.0844    8.3076   22.2695 C   0  0  2  0  0  0  0  0  0  0  0  0
    4.6677    8.2348   22.6404 O   0  0  0  0  0  0  0  0  0  0  0  0
    4.1675    7.0370   23.0914 C   0  0  0  0  0  0  0  0  0  0  0  0
    4.3550    6.7557   24.4755 O   0  0  0  0  0  0  0  0  0  0  0  0
    3.5721    6.1800   22.5229 O   0  0  0  0  0  0  0  0  0  0  0  0
  1  2  1  0
  1  3  1  0
  3  4  1  6
  3  5  1  0
  6  2  1  1
  6  7  1  0
  7  8  1  6
  5  9  1  0
  6  9  1  0
  7 10  1  0
 10 11  1  0
 11 12  1  0
 11 13  1  6
  8 14  1  0
 12 14  1  0
 14 15  1  1
 15 16  1  0
 16 17  1  0
 16 18  2  0
M  END
$$$$
6
     RDKit          3D

 13 14  0  0  0  0  0  0  0  0999 V2000
   10.0425    8.5001   25.1915 C   0  0  0  0  0  0  0  0  0  0  0  0
   10.4373    7.7113   25.9683 C   0  0  2  0  0  0  0  0  0  0  0  0
    8.9463    8.3408   24.5700 C   0  0  2  0  0  0  0  0  0  0  0  0
    8.3011    9.1947   23.5814 C   0  0  0  0  0  0  0  0  0  0  0  0
    6.8925    8.8419   23.1813 C   0  0  0  0  0  0  0  0  0  0  0  0
    8.2091    7.4256   25.2159 C   0  0  1  0  0  0  0  0  0  0  0  0
    6.9287    7.1869   24.8393 N   0  0  0  0  0  0  0  0  0  0  0  0
    6.2908    7.8245   23.8658 C   0  0  1  0  0  0  0  0  0  0  0  0
    4.7663    7.5212   23.6546 C   0  0  0  0  0  0  0  0  0  0  0  0
    4.4400    6.7207   22.9019 O   0  0  0  0  0  0  0  0  0  0  0  0
    3.9789    8.3698   24.2546 O   0  0  0  0  0  0  0  0  0  0  0  0
    9.0770    6.8585   26.0967 N   0  0  0  0  0  0  0  0  0  0  0  0
   11.3444    7.2266   27.0416 C   0  0  0  0  0  0  0  0  0  0  0  0
  1  2  1  0
  3  1  1  1
  3  4  1  0
  4  5  1  0
  3  6  1  0
  6  7  1  6
  5  8  1  0
  7  8  1  0
  8  9  1  1
  9 10  2  0
  9 11  1  0
  2 12  1  0
  6 12  1  0
  2 13  1  1
M  END
$$$$
60
     RDKit          3D

 18 20  0  0  0  0  0  0  0  0999 V2000
   10.0425    8.5001   25.1915 C   0  0  0  0  0  0  0  0  0  0  0  0
   10.4373    7.7113   25.9683 C   0  0  2  0  0  0  0  0  0  0  0  0
    8.9463    8.3408   24.5700 C   0  0  2  0  0  0  0  0  0  0  0  0
    8.3011    9.1947   23.5814 C   0  0  0  0  0  0  0  0  0  0  0  0
    6.8925    8.8419   23.1813 C   0  0  0  0  0  0  0  0  0  0  0  0
    8.2091    7.4256   25.2159 C   0  0  1  0  0  0  0  0  0  0  0  0
    6.9287    7.1869   24.8393 N   0  0  0  0  0  0  0  0  0  0  0  0
    9.1767    6.8134   26.0959 N   0  0  0  0  0  0  0  0  0  0  0  0
   11.5319    7.3555   26.8779 C   0  0  0  0  0  0  0  0  0  0  0  0
    6.2825    7.8372   23.9476 C   0  0  2  0  0  0  0  0  0  0  0  0
    4.9457    7.4479   23.6951 N   0  0  0  0  0  0  0  0  0  0  0  0
    4.0297    7.1545   24.5606 C   0  0  0  0  0  0  0  0  0  0  0  0
    2.8670    6.5033   24.0811 C   0  0  0  0  0  0  0  0  0  0  0  0
    2.6377    6.6908   22.8789 C   0  0  2  0  0  0  0  0  0  0  0  0
    1.7319    6.2544   22.0122 C   0  0  0  0  0  0  0  0  0  0  0  0
    3.9999    7.2232   22.4308 C   0  0  0  0  0  0  0  0  0  0  0  0
    0.5246    5.7636   22.4724 O   0  0  0  0  0  0  0  0  0  0  0  0
    1.8155    6.2968   20.6081 O   0  0  0  0  0  0  0  0  0  0  0  0
  1  2  1  0
  3  1  1  1
  3  4  1  0
  4  5  1  0
  3  6  1  0
  6  7  1  6
  2  8  1  0
  6  8  1  0
  2  9  1  1
  5 10  1  0
  7 10  1  0
 10 11  1  6
 11 12  1  0
 12 13  1  0
 13 14  1  0
 14 15  1  6
 11 16  1  0
 14 16  1  0
 15 17  1  0
 15 18  2  0
M  END
$$$$
61
     RDKit          3D

 18 21  0  0  0  0  0  0  0  0999 V2000
   10.6189    6.7253   27.4098 C   0  0  0  0  0  0  0  0  0  0  0  0
   11.1757    7.7599   26.7022 C   0  0  0  0  0  0  0  0  0  0  0  0
    9.2905    6.4645   27.0024 N   0  0  0  0  0  0  0  0  0  0  0  0
    9.0465    7.2604   25.8992 C   0  0  2  0  0  0  0  0  0  0  0  0
    7.9613    7.3388   25.0666 N   0  0  0  0  0  0  0  0  0  0  0  0
    7.8471    8.1173   24.0029 C   0  0  1  0  0  0  0  0  0  0  0  0
   10.1415    8.1117   25.4220 C   0  0  1  0  0  0  0  0  0  0  0  0
    6.5994    8.1616   23.2256 C   0  0  2  0  0  0  0  0  0  0  0  0
    8.9056    9.0613   23.7389 C   0  0  0  0  0  0  0  0  0  0  0  0
    5.4356    8.1625   23.7710 C   0  0  0  0  0  0  0  0  0  0  0  0
   10.2055    8.9763   24.4669 C   0  0  0  0  0  0  0  0  0  0  0  0
    6.7434    8.0280   21.8129 C   0  0  2  0  0  0  0  0  0  0  0  0
    5.5299    7.9581   21.0540 C   0  0  0  0  0  0  0  0  0  0  0  0
    7.6821    7.8163   20.9563 O   0  0  0  0  0  0  0  0  0  0  0  0
    4.2684    8.0345   21.7229 C   0  0  0  0  0  0  0  0  0  0  0  0
    4.2669    8.1079   23.1156 C   0  0  0  0  0  0  0  0  0  0  0  0
    5.7093    7.8314   19.6887 C   0  0  0  0  0  0  0  0  0  0  0  0
    7.2818    7.7878   19.7077 C   0  0  0  0  0  0  0  0  0  0  0  0
  1  2  1  0
  1  3  1  0
  4  3  1  6
  4  5  1  0
  5  6  1  0
  7  2  1  1
  4  7  1  0
  6  8  1  0
  6  9  1  1
  8 10  1  1
  7 11  1  0
  9 11  1  0
  8 12  1  0
 12 13  1  0
 12 14  1  1
 13 15  1  0
 10 16  1  0
 15 16  1  0
 13 17  1  0
 14 18  1  0
 17 18  1  0
M  END
$$$$
62
     RDKit          3D

 18 20  0  0  0  0  0  0  0  0999 V2000
   11.2842    8.6161   25.2737 C   0  0  0  0  0  0  0  0  0  0  0  0
   10.2539    8.9777   24.5222 C   0  0  0  0  0  0  0  0  0  0  0  0
   10.9142    7.6523   26.3175 C   0  0  2  0  0  0  0  0  0  0  0  0
   11.8264    7.1124   27.2873 C   0  0  0  0  0  0  0  0  0  0  0  0
    9.4936    7.2559   26.1751 C   0  0  0  0  0  0  0  0  0  0  0  0
    9.0287    8.3612   24.5651 C   0  0  2  0  0  0  0  0  0  0  0  0
    8.0404    8.9710   23.5567 C   0  0  2  0  0  0  0  0  0  0  0  0
    6.6742    8.5585   23.7384 C   0  0  2  0  0  0  0  0  0  0  0  0
    8.5895    7.4961   25.3843 C   0  0  0  0  0  0  0  0  0  0  0  0
    8.3789    9.7297   22.4827 C   0  0  0  0  0  0  0  0  0  0  0  0
    6.0930    8.4033   25.0054 O   0  0  0  0  0  0  0  0  0  0  0  0
    4.7603    8.2033   25.0096 C   0  0  0  0  0  0  0  0  0  0  0  0
    5.7433    8.1749   22.7318 C   0  0  1  0  0  0  0  0  0  0  0  0
    4.4520    7.9853   23.5036 C   0  0  0  0  0  0  0  0  0  0  0  0
    7.7521    9.6561   21.1255 C   0  0  2  0  0  0  0  0  0  0  0  0
    5.8222    8.2923   21.3366 C   0  0  0  0  0  0  0  0  0  0  0  0
    6.8964    8.8263   20.7854 C   0  0  0  0  0  0  0  0  0  0  0  0
    8.6983   10.3421   20.2075 N   0  0  0  0  0  0  0  0  0  0  0  0
  1  2  1  0
  1  3  1  0
  3  4  1  6
  3  5  1  0
  6  2  1  1
  6  7  1  0
  7  8  1  0
  5  9  1  0
  6  9  1  0
  7 10  1  6
  8 11  1  1
 11 12  1  0
  8 13  1  0
 12 14  1  0
 13 14  1  1
 10 15  1  0
 13 16  1  0
 15 17  1  0
 16 17  1  0
 15 18  1  6
M  END
$$$$
63
     RDKit          3D

 18 20  0  0  0  0  0  0  0  0999 V2000
   11.1611    7.5540   26.6325 C   0  0  0  0  0  0  0  0  0  0  0  0
   10.8673    8.4318   25.7579 C   0  0  0  0  0  0  0  0  0  0  0  0
    9.9265    6.8712   27.0589 C   0  0  2  0  0  0  0  0  0  0  0  0
    9.9672    5.8102   28.0926 N   0  0  0  0  0  0  0  0  0  0  0  0
    9.7641    8.3030   24.9023 C   0  0  1  0  0  0  0  0  0  0  0  0
    8.7702    6.7975   26.2772 C   0  0  0  0  0  0  0  0  0  0  0  0
    8.6999    7.6635   25.2214 C   0  0  2  0  0  0  0  0  0  0  0  0
    7.5223    7.8186   24.4295 C   0  0  2  0  0  0  0  0  0  0  0  0
    9.6497    9.3189   23.6581 C   0  0  0  0  0  0  0  0  0  0  0  0
    8.6509    9.2228   22.9593 C   0  0  2  0  0  0  0  0  0  0  0  0
    8.5255    9.9873   21.7130 N   0  0  0  0  0  0  0  0  0  0  0  0
    6.3404    7.0830   24.8233 N   0  0  0  0  0  0  0  0  0  0  0  0
    7.4539    8.4673   23.2935 C   0  0  2  0  0  0  0  0  0  0  0  0
    5.1549    7.4183   24.3457 C   0  0  0  0  0  0  0  0  0  0  0  0
    7.2155    9.9264   21.2077 C   0  0  0  0  0  0  0  0  0  0  0  0
    6.6094    8.8676   22.1247 N   0  0  0  0  0  0  0  0  0  0  0  0
    4.2962    8.1457   25.1633 C   0  0  0  0  0  0  0  0  0  0  0  0
    4.6980    6.9444   23.2554 O   0  0  0  0  0  0  0  0  0  0  0  0
  1  2  1  0
  1  3  1  0
  3  4  1  6
  5  2  1  1
  3  6  1  0
  5  7  1  0
  7  6  1  6
  7  8  1  0
  5  9  1  0
 10  9  1  1
 10 11  1  0
  8 12  1  6
  8 13  1  0
 10 13  1  0
 12 14  1  0
 11 15  1  0
 13 16  1  1
 15 16  1  0
 14 17  1  0
 14 18  2  0
M  END
$$$$
64
     RDKit          3D

 18 20  0  0  0  0  0  0  0  0999 V2000
   11.2842    8.6161   25.2737 C   0  0  0  0  0  0  0  0  0  0  0  0
   10.2539    8.9777   24.5222 C   0  0  0  0  0  0  0  0  0  0  0  0
   10.9142    7.6523   26.3175 C   0  0  2  0  0  0  0  0  0  0  0  0
   11.8264    7.1124   27.2873 C   0  0  0  0  0  0  0  0  0  0  0  0
    9.4936    7.2559   26.1751 C   0  0  0  0  0  0  0  0  0  0  0  0
    9.0287    8.3612   24.5651 C   0  0  2  0  0  0  0  0  0  0  0  0
    8.0404    8.9710   23.5567 C   0  0  2  0  0  0  0  0  0  0  0  0
    6.6742    8.5585   23.7384 C   0  0  2  0  0  0  0  0  0  0  0  0
    8.5895    7.4961   25.3843 C   0  0  0  0  0  0  0  0  0  0  0  0
    8.3789    9.7297   22.4827 C   0  0  0  0  0  0  0  0  0  0  0  0
    6.0930    8.4033   25.0054 O   0  0  0  0  0  0  0  0  0  0  0  0
    4.7603    8.2033   25.0096 C   0  0  0  0  0  0  0  0  0  0  0  0
    5.7433    8.1749   22.7318 C   0  0  1  0  0  0  0  0  0  0  0  0
    4.4520    7.9853   23.5036 C   0  0  0  0  0  0  0  0  0  0  0  0
    7.7521    9.6561   21.1255 C   0  0  2  0  0  0  0  0  0  0  0  0
    5.8222    8.2923   21.3366 C   0  0  0  0  0  0  0  0  0  0  0  0
    6.8964    8.8263   20.7854 C   0  0  0  0  0  0  0  0  0  0  0  0
    8.6983   10.3421   20.2075 O   0  0  0  0  0  0  0  0  0  0  0  0
  1  2  1  0
  1  3  1  0
  3  4  1  6
  3  5  1  0
  6  2  1  1
  6  7  1  0
  7  8  1  0
  5  9  1  0
  6  9  1  0
  7 10  1  6
  8 11  1  1
 11 12  1  0
  8 13  1  0
 12 14  1  0
 13 14  1  1
 10 15  1  0
 13 16  1  0
 15 17  1  0
 16 17  1  0
 15 18  1  6
M  END
$$$$
65
     RDKit          3D

 18 20  0  0  0  0  0  0  0  0999 V2000
   10.0425    8.5001   25.1915 C   0  0  0  0  0  0  0  0  0  0  0  0
   10.4373    7.7113   25.9683 C   0  0  2  0  0  0  0  0  0  0  0  0
    8.9463    8.3408   24.5700 C   0  0  2  0  0  0  0  0  0  0  0  0
    8.3011    9.1947   23.5814 C   0  0  0  0  0  0  0  0  0  0  0  0
    6.8925    8.8419   23.1813 C   0  0  0  0  0  0  0  0  0  0  0  0
    8.2091    7.4256   25.2159 C   0  0  1  0  0  0  0  0  0  0  0  0
    6.9287    7.1869   24.8393 N   0  0  0  0  0  0  0  0  0  0  0  0
    6.2908    7.8245   23.8658 C   0  0  1  0  0  0  0  0  0  0  0  0
    9.2011    6.9379   26.0828 N   0  0  0  0  0  0  0  0  0  0  0  0
    4.9559    7.4644   23.6338 C   0  0  0  0  0  0  0  0  0  0  0  0
   11.2913    7.2099   27.0814 C   0  0  0  0  0  0  0  0  0  0  0  0
    4.0324    7.4713   24.4157 O   0  0  0  0  0  0  0  0  0  0  0  0
    4.5081    6.9776   22.4441 N   0  0  0  0  0  0  0  0  0  0  0  0
    3.0773    6.6845   22.2097 C   0  0  0  0  0  0  0  0  0  0  0  0
    5.3482    6.7550   21.2959 C   0  0  0  0  0  0  0  0  0  0  0  0
    2.4754    7.7083   21.4660 C   0  0  0  0  0  0  0  0  0  0  0  0
    3.1279    7.8650   20.1880 C   0  0  0  0  0  0  0  0  0  0  0  0
    4.6851    7.8659   20.3229 C   0  0  0  0  0  0  0  0  0  0  0  0
  1  2  1  0
  3  1  1  1
  3  4  1  0
  4  5  1  0
  3  6  1  0
  6  7  1  6
  5  8  1  0
  7  8  1  0
  2  9  1  0
  6  9  1  0
  8 10  1  1
  2 11  1  1
 10 12  2  0
 10 13  1  0
 13 14  1  0
 13 15  1  0
 14 16  1  0
 16 17  1  0
 15 18  1  0
 17 18  1  0
M  END
$$$$
66
     RDKit          3D

 18 20  0  0  0  0  0  0  0  0999 V2000
    9.6988    6.1577   27.5765 N   0  0  0  0  0  0  0  0  0  0  0  0
    9.0331    6.7007   26.5940 C   0  0  0  0  0  0  0  0  0  0  0  0
   11.0010    6.5957   27.7258 C   0  0  0  0  0  0  0  0  0  0  0  0
   11.5278    7.5342   26.8591 C   0  0  0  0  0  0  0  0  0  0  0  0
   10.8742    8.0879   25.7866 C   0  0  0  0  0  0  0  0  0  0  0  0
    9.5911    7.7855   25.6856 C   0  0  1  0  0  0  0  0  0  0  0  0
    8.6491    8.2807   24.5660 C   0  0  0  0  0  0  0  0  0  0  0  0
    8.9629    9.3882   23.9345 C   0  0  0  0  0  0  0  0  0  0  0  0
    8.0803    9.7997   22.8789 C   0  0  0  0  0  0  0  0  0  0  0  0
    7.4877    7.6688   24.0582 C   0  0  0  0  0  0  0  0  0  0  0  0
    6.6451    6.8838   24.5709 N   0  0  0  0  0  0  0  0  0  0  0  0
    8.2587   10.4579   21.7890 N   0  0  0  0  0  0  0  0  0  0  0  0
    6.7919    9.0514   22.8811 S   0  0  0  0  0  0  0  0  0  0  0  0
    7.4131   10.4984   20.6952 C   0  0  0  0  0  0  0  0  0  0  0  0
    7.9167    9.9467   19.4115 C   0  0  0  0  0  0  0  0  0  0  0  0
    6.7207    7.7316   23.4373 C   0  0  0  0  0  0  0  0  0  0  0  0
    7.1694   10.1788   18.2959 C   0  0  0  0  0  0  0  0  0  0  0  0
    8.9759    9.0856   19.3334 O   0  0  0  0  0  0  0  0  0  0  0  0
  1  2  1  0
  1  3  1  0
  3  4  1  0
  4  5  1  0
  2  6  1  0
  5  6  1  0
  6  7  1  6
  7  8  2  0
  8  9  1  0
  7 10  1  0
 10 11  1  0
  9 12  1  0
  9 13  2  0
 12 14  1  0
 14 15  1  0
 10 16  2  0
 11 16  1  0
 13 16  1  0
 15 17  1  0
 15 18  2  0
M  END
$$$$
67
     RDKit          3D

 18 20  0  0  0  0  0  0  0  0999 V2000
    9.6988    6.1577   27.5765 N   0  0  0  0  0  0  0  0  0  0  0  0
    9.0331    6.7007   26.5940 C   0  0  0  0  0  0  0  0  0  0  0  0
   11.0010    6.5957   27.7258 C   0  0  0  0  0  0  0  0  0  0  0  0
   11.5278    7.5342   26.8591 C   0  0  0  0  0  0  0  0  0  0  0  0
   10.8742    8.0879   25.7866 C   0  0  0  0  0  0  0  0  0  0  0  0
    9.5911    7.7855   25.6856 C   0  0  1  0  0  0  0  0  0  0  0  0
    8.6491    8.2807   24.5660 C   0  0  0  0  0  0  0  0  0  0  0  0
    8.9629    9.3882   23.9345 C   0  0  0  0  0  0  0  0  0  0  0  0
    8.0803    9.7997   22.8789 C   0  0  0  0  0  0  0  0  0  0  0  0
    7.4877    7.6688   24.0582 C   0  0  1  0  0  0  0  0  0  0  0  0
    6.6451    6.8838   24.5709 N   0  0  0  0  0  0  0  0  0  0  0  0
    8.2587   10.4579   21.7890 N   0  0  0  0  0  0  0  0  0  0  0  0
    6.7919    9.0514   22.8811 S   0  0  0  0  0  0  0  0  0  0  0  0
    7.4131   10.4984   20.6952 C   0  0  0  0  0  0  0  0  0  0  0  0
    7.9167    9.9467   19.4115 C   0  0  0  0  0  0  0  0  0  0  0  0
    6.7207    7.7316   23.4373 C   0  0  1  0  0  0  0  0  0  0  0  0
    7.1849   10.1946   18.3094 N   0  0  0  0  0  0  0  0  0  0  0  0
    8.8569    9.1656   19.2967 O   0  0  0  0  0  0  0  0  0  0  0  0
  1  2  1  0
  1  3  1  0
  3  4  1  0
  4  5  1  0
  2  6  1  0
  5  6  1  0
  6  7  1  6
  7  8  2  0
  8  9  1  0
  7 10  1  0
 10 11  1  1
  9 12  1  0
  9 13  2  0
 12 14  1  0
 14 15  1  0
 10 16  1  0
 16 11  1  1
 13 16  1  0
 15 17  1  0
 15 18  2  0
M  END
$$$$
68
     RDKit          3D

 18 20  0  0  0  0  0  0  0  0999 V2000
   11.2842    8.6161   25.2737 C   0  0  0  0  0  0  0  0  0  0  0  0
   10.2539    8.9777   24.5222 C   0  0  0  0  0  0  0  0  0  0  0  0
   10.9142    7.6523   26.3175 C   0  0  2  0  0  0  0  0  0  0  0  0
   11.8264    7.1124   27.2873 C   0  0  0  0  0  0  0  0  0  0  0  0
    9.4936    7.2559   26.1751 C   0  0  0  0  0  0  0  0  0  0  0  0
    9.0287    8.3612   24.5651 C   0  0  2  0  0  0  0  0  0  0  0  0
    8.0404    8.9710   23.5567 C   0  0  2  0  0  0  0  0  0  0  0  0
    6.6742    8.5585   23.7384 C   0  0  2  0  0  0  0  0  0  0  0  0
    8.5895    7.4961   25.3843 C   0  0  0  0  0  0  0  0  0  0  0  0
    8.3789    9.7297   22.4827 C   0  0  0  0  0  0  0  0  0  0  0  0
    6.0930    8.4033   25.0054 O   0  0  0  0  0  0  0  0  0  0  0  0
    4.7603    8.2033   25.0096 C   0  0  0  0  0  0  0  0  0  0  0  0
    5.7433    8.1749   22.7318 C   0  0  1  0  0  0  0  0  0  0  0  0
    4.4520    7.9853   23.5036 C   0  0  0  0  0  0  0  0  0  0  0  0
    7.7521    9.6561   21.1255 C   0  0  2  0  0  0  0  0  0  0  0  0
    5.8222    8.2923   21.3366 C   0  0  0  0  0  0  0  0  0  0  0  0
    6.8964    8.8263   20.7854 C   0  0  0  0  0  0  0  0  0  0  0  0
    8.7628   10.4876   20.0384 Cl  0  0  0  0  0  0  0  0  0  0  0  0
  1  2  1  0
  1  3  1  0
  3  4  1  6
  3  5  1  0
  6  2  1  1
  6  7  1  0
  7  8  1  0
  5  9  1  0
  6  9  1  0
  7 10  1  6
  8 11  1  1
 11 12  1  0
  8 13  1  0
 12 14  1  0
 13 14  1  1
 10 15  1  0
 13 16  1  0
 15 17  1  0
 16 17  1  0
 15 18  1  6
M  END
$$$$
69
     RDKit          3D

 18 20  0  0  0  0  0  0  0  0999 V2000
   10.3882    7.1623   27.0729 C   0  0  0  0  0  0  0  0  0  0  0  0
    9.2960    7.0542   26.4025 C   0  0  0  0  0  0  0  0  0  0  0  0
   11.4415    7.6449   26.5732 C   0  0  0  0  0  0  0  0  0  0  0  0
    9.0812    7.7948   25.2086 C   0  0  0  0  0  0  0  0  0  0  0  0
    7.8636    7.9095   24.4491 C   0  0  0  0  0  0  0  0  0  0  0  0
   11.4440    8.4394   25.3093 C   0  0  0  0  0  0  0  0  0  0  0  0
   10.1294    8.5030   24.6630 C   0  0  0  0  0  0  0  0  0  0  0  0
    7.9286    8.7365   23.3480 C   0  0  0  0  0  0  0  0  0  0  0  0
   10.0275    9.3718   23.4521 N   0  0  0  0  0  0  0  0  0  0  0  0
    6.5733    8.8261   22.6176 C   0  0  0  0  0  0  0  0  0  0  0  0
    8.9273    9.3974   22.8532 C   0  0  0  0  0  0  0  0  0  0  0  0
    6.5739    9.2357   21.3346 N   0  0  0  0  0  0  0  0  0  0  0  0
    5.4338    8.2970   23.1171 N   0  0  0  0  0  0  0  0  0  0  0  0
    5.3763    9.0324   20.6578 C   0  0  0  0  0  0  0  0  0  0  0  0
    4.5552    8.3655   21.8325 C   0  0  2  0  0  0  0  0  0  0  0  0
    3.2130    7.9627   21.8175 C   0  0  0  0  0  0  0  0  0  0  0  0
    2.7556    7.0628   20.9360 O   0  0  0  0  0  0  0  0  0  0  0  0
    2.3034    8.6299   22.6291 N   0  0  0  0  0  0  0  0  0  0  0  0
  1  2  1  0
  1  3  1  0
  2  4  1  0
  4  5  1  0
  3  6  1  0
  4  7  1  0
  6  7  1  0
  5  8  1  0
  7  9  1  0
  8 10  1  0
  8 11  1  0
  9 11  1  0
 10 12  2  0
 10 13  1  0
 12 14  1  0
 13 15  1  0
 14 15  1  0
 15 16  1  1
 16 17  2  0
 16 18  1  0
M  END
$$$$
7
     RDKit          3D

 13 13  0  0  0  0  0  0  0  0999 V2000
   10.5498    9.1253   24.2687 C   0  0  0  0  0  0  0  0  0  0  0  0
    9.3361    9.0294   23.6860 C   0  0  0  0  0  0  0  0  0  0  0  0
   10.8878    8.4209   25.3915 C   0  0  0  0  0  0  0  0  0  0  0  0
    9.9116    7.5628   25.9718 C   0  0  0  0  0  0  0  0  0  0  0  0
    8.3842    8.2008   24.2914 C   0  0  0  0  0  0  0  0  0  0  0  0
    8.6924    7.4404   25.4508 C   0  0  0  0  0  0  0  0  0  0  0  0
   10.3056    6.7520   27.1661 C   0  0  0  0  0  0  0  0  0  0  0  0
    7.0094    8.0196   23.7384 C   0  0  0  0  0  0  0  0  0  0  0  0
    6.1040    7.2647   24.2932 N   0  0  0  0  0  0  0  0  0  0  0  0
    6.6792    8.4914   22.5519 O   0  0  0  0  0  0  0  0  0  0  0  0
    4.6639    7.4433   24.1288 C   0  0  0  0  0  0  0  0  0  0  0  0
    4.2092    8.8119   24.1635 C   0  0  0  0  0  0  0  0  0  0  0  0
    3.6077    9.2130   25.4754 C   0  0  0  0  0  0  0  0  0  0  0  0
  1  2  1  0
  1  3  1  0
  3  4  1  0
  2  5  1  0
  4  6  1  0
  5  6  1  0
  4  7  1  0
  5  8  1  0
  8  9  1  0
  8 10  2  0
  9 11  1  0
 11 12  1  0
 12 13  1  0
M  END
$$$$
70
     RDKit          3D

 18 19  0  0  0  0  0  0  0  0999 V2000
    9.8452    8.8617   24.5490 C   0  0  0  0  0  0  0  0  0  0  0  0
    8.6619    8.5654   24.3110 C   0  0  1  0  0  0  0  0  0  0  0  0
   10.5896    8.3429   25.3425 C   0  0  0  0  0  0  0  0  0  0  0  0
   10.0367    7.4247   26.2502 C   0  0  2  0  0  0  0  0  0  0  0  0
    7.9798    7.6287   25.1770 C   0  0  0  0  0  0  0  0  0  0  0  0
   10.8757    6.7005   27.2989 C   0  0  0  0  0  0  0  0  0  0  0  0
   12.1050    6.9512   27.3836 N   0  0  0  0  0  0  0  0  0  0  0  0
   10.0733    5.8136   27.8826 N   0  0  0  0  0  0  0  0  0  0  0  0
    7.7265    9.2925   23.0767 C   0  0  0  0  0  0  0  0  0  0  0  0
    8.7149    7.0732   26.0478 C   0  0  0  0  0  0  0  0  0  0  0  0
    8.4147    9.8654   22.1720 O   0  0  0  0  0  0  0  0  0  0  0  0
    8.2412    9.3431   20.8422 C   0  0  0  0  0  0  0  0  0  0  0  0
    6.5766    9.3614   23.2572 O   0  0  0  0  0  0  0  0  0  0  0  0
    8.7935    8.1928   20.4779 C   0  0  0  0  0  0  0  0  0  0  0  0
    6.7794    9.2877   20.3603 C   0  0  0  0  0  0  0  0  0  0  0  0
    8.1221    7.1729   20.6699 C   0  0  0  0  0  0  0  0  0  0  0  0
    9.1387   10.6774   20.3093 O   0  0  0  0  0  0  0  0  0  0  0  0
    6.5306    7.8331   20.3917 C   0  0  0  0  0  0  0  0  0  0  0  0
  1  2  1  0
  1  3  1  0
  3  4  1  0
  2  5  1  0
  4  6  1  6
  6  7  2  0
  6  8  1  0
  2  9  1  1
  4 10  1  0
  5 10  1  0
  9 11  1  0
 11 12  1  0
  9 13  2  0
 12 14  1  0
 12 15  1  0
 14 16  1  0
 12 17  1  0
 15 18  1  0
 16 18  1  0
M  END
$$$$
71
     RDKit          3D

 19 22  0  0  0  0  0  0  0  0999 V2000
   10.0666    6.5793   27.3703 C   0  0  0  0  0  0  0  0  0  0  0  0
   11.1296    7.2240   27.1545 C   0  0  0  0  0  0  0  0  0  0  0  0
    8.8506    6.9299   26.6053 C   0  0  0  0  0  0  0  0  0  0  0  0
    9.3541    7.8479   25.5053 C   0  0  2  0  0  0  0  0  0  0  0  0
   11.2160    7.9833   25.8814 C   0  0  0  0  0  0  0  0  0  0  0  0
   10.2750    8.3831   25.2405 C   0  0  1  0  0  0  0  0  0  0  0  0
   10.4055    9.3133   23.8693 S   0  0  0  0  0  0  0  0  0  0  0  0
    8.0290    8.2386   24.5561 C   0  0  0  0  0  0  0  0  0  0  0  0
    8.7077    9.0208   23.4874 C   0  0  0  0  0  0  0  0  0  0  0  0
    7.8254    9.3061   22.4544 C   0  0  0  0  0  0  0  0  0  0  0  0
    6.5725    8.9048   22.6955 C   0  0  0  0  0  0  0  0  0  0  0  0
    6.7001    8.1250   24.3419 C   0  0  0  0  0  0  0  0  0  0  0  0
    5.3979    8.9567   22.0628 O   0  0  0  0  0  0  0  0  0  0  0  0
    4.4326    7.9561   22.3358 C   0  0  2  0  0  0  0  0  0  0  0  0
    3.2660    7.9576   21.6070 C   0  0  0  0  0  0  0  0  0  0  0  0
    2.3210    6.9352   21.9655 C   0  0  2  0  0  0  0  0  0  0  0  0
    1.0279    6.8981   21.2242 O   0  0  0  0  0  0  0  0  0  0  0  0
    4.2374    7.0831   23.3531 C   0  0  0  0  0  0  0  0  0  0  0  0
    2.9253    6.4070   23.1566 C   0  0  0  0  0  0  0  0  0  0  0  0
  1  2  1  0
  1  3  1  0
  4  3  1  1
  2  5  1  0
  4  6  1  0
  6  5  1  6
  6  7  1  0
  4  8  1  0
  7  9  1  0
  8  9  1  0
  9 10  1  0
 10 11  1  0
  8 12  1  0
 11 12  1  0
 11 13  1  0
 14 13  1  1
 14 15  1  0
 15 16  1  0
 16 17  1  1
 14 18  1  0
 16 19  1  0
 18 19  1  0
M  END
$$$$
72
     RDKit          3D

 19 21  0  0  0  0  0  0  0  0999 V2000
   10.0666    6.5793   27.3703 C   0  0  0  0  0  0  0  0  0  0  0  0
   11.1296    7.2240   27.1545 C   0  0  0  0  0  0  0  0  0  0  0  0
    8.8506    6.9299   26.6053 C   0  0  0  0  0  0  0  0  0  0  0  0
    9.3541    7.8479   25.5053 C   0  0  2  0  0  0  0  0  0  0  0  0
   11.2160    7.9833   25.8814 C   0  0  0  0  0  0  0  0  0  0  0  0
   10.2750    8.3831   25.2405 C   0  0  1  0  0  0  0  0  0  0  0  0
   10.4055    9.3133   23.8693 S   0  0  0  0  0  0  0  0  0  0  0  0
    8.0290    8.2386   24.5561 C   0  0  0  0  0  0  0  0  0  0  0  0
    8.7077    9.0208   23.4874 C   0  0  0  0  0  0  0  0  0  0  0  0
    7.8254    9.3061   22.4544 C   0  0  1  0  0  0  0  0  0  0  0  0
    6.5725    8.9048   22.6955 C   0  0  0  0  0  0  0  0  0  0  0  0
    6.7001    8.1250   24.3419 C   0  0  0  0  0  0  0  0  0  0  0  0
    5.3979    8.9567   22.0628 O   0  0  0  0  0  0  0  0  0  0  0  0
    8.0386   10.0258   21.1849 C   0  0  0  0  0  0  0  0  0  0  0  0
    8.3486    9.3799   20.1129 N   0  0  0  0  0  0  0  0  0  0  0  0
    8.0011   11.2623   21.1709 O   0  0  0  0  0  0  0  0  0  0  0  0
    4.9995    7.8161   21.3005 C   0  0  0  0  0  0  0  0  0  0  0  0
    8.6215    7.9358   20.0606 C   0  0  0  0  0  0  0  0  0  0  0  0
    8.5307   10.0812   18.8869 C   0  0  0  0  0  0  0  0  0  0  0  0
  1  2  1  0
  1  3  1  0
  4  3  1  1
  2  5  1  0
  4  6  1  0
  6  5  1  6
  6  7  1  0
  4  8  1  0
  7  9  1  0
  8  9  1  0
  9 10  1  0
 10 11  1  0
  8 12  1  0
 11 12  1  0
 11 13  1  0
 10 14  1  1
 14 15  1  0
 14 16  2  0
 13 17  1  0
 15 18  1  0
 15 19  1  0
M  END
$$$$
73
     RDKit          3D

 19 21  0  0  0  0  0  0  0  0999 V2000
   11.2884    7.3184   26.9534 C   0  0  0  0  0  0  0  0  0  0  0  0
   11.1435    8.2501   26.0667 C   0  0  0  0  0  0  0  0  0  0  0  0
   10.1275    8.5501   25.1939 C   0  0  2  0  0  0  0  0  0  0  0  0
   10.0487    6.5954   27.1984 C   0  0  0  0  0  0  0  0  0  0  0  0
    8.9498    6.9942   26.3270 C   0  0  0  0  0  0  0  0  0  0  0  0
    9.0674    7.9443   25.3687 C   0  0  0  0  0  0  0  0  0  0  0  0
    7.9976    8.3110   24.4730 C   0  0  2  0  0  0  0  0  0  0  0  0
    6.6565    7.8694   24.5211 N   0  0  0  0  0  0  0  0  0  0  0  0
    8.1605    9.0556   23.3305 C   0  0  1  0  0  0  0  0  0  0  0  0
    9.3343    9.5556   22.7406 C   0  0  0  0  0  0  0  0  0  0  0  0
   10.4716    9.5317   24.0022 C   0  0  0  0  0  0  0  0  0  0  0  0
    6.8959    8.8896   22.6731 C   0  0  1  0  0  0  0  0  0  0  0  0
    6.0679    8.2712   23.4353 C   0  0  2  0  0  0  0  0  0  0  0  0
    6.6223    9.6754   21.4400 O   0  0  0  0  0  0  0  0  0  0  0  0
    4.6073    8.2569   23.0766 N   0  0  0  0  0  0  0  0  0  0  0  0
    6.8142    8.9830   20.2738 C   0  0  0  0  0  0  0  0  0  0  0  0
    3.7194    8.0421   23.9875 C   0  0  0  0  0  0  0  0  0  0  0  0
    2.4996    7.6367   23.6189 C   0  0  0  0  0  0  0  0  0  0  0  0
    3.4849    9.1707   24.8558 C   0  0  0  0  0  0  0  0  0  0  0  0
  1  2  1  0
  3  2  1  6
  1  4  1  0
  4  5  1  0
  3  6  1  0
  5  6  1  0
  6  7  1  0
  7  8  1  6
  7  9  1  0
  9 10  1  6
  3 11  1  0
 10 11  1  0
  9 12  1  0
  8 13  1  0
 12 13  1  0
 12 14  1  1
 13 15  1  1
 14 16  1  0
 15 17  1  0
 17 18  1  0
 17 19  1  0
M  END
$$$$
74
     RDKit          3D

 19 22  0  0  0  0  0  0  0  0999 V2000
   10.5807    6.5000   27.4140 C   0  0  0  0  0  0  0  0  0  0  0  0
    9.3957    6.4938   26.8757 N   0  0  0  0  0  0  0  0  0  0  0  0
   11.4806    7.4886   26.9253 C   0  0  0  0  0  0  0  0  0  0  0  0
    9.2375    7.3966   25.8939 C   0  0  2  0  0  0  0  0  0  0  0  0
    7.9465    7.3645   25.1874 N   0  0  0  0  0  0  0  0  0  0  0  0
   10.0966    8.2280   25.2279 C   0  0  0  0  0  0  0  0  0  0  0  0
    8.0629    8.3391   24.1401 C   0  0  1  0  0  0  0  0  0  0  0  0
   11.3087    8.2431   25.7271 C   0  0  0  0  0  0  0  0  0  0  0  0
    9.4305    8.8728   24.1479 C   0  0  0  0  0  0  0  0  0  0  0  0
    7.0236    8.6617   23.1561 C   0  0  1  0  0  0  0  0  0  0  0  0
    7.4013    9.1324   21.9634 C   0  0  2  0  0  0  0  0  0  0  0  0
    6.5447    9.3038   20.9799 N   0  0  0  0  0  0  0  0  0  0  0  0
    5.3164    8.7509   21.3710 C   0  0  0  0  0  0  0  0  0  0  0  0
    5.7868    7.9773   23.2000 C   0  0  2  0  0  0  0  0  0  0  0  0
    5.0578    8.2124   22.4258 N   0  0  0  0  0  0  0  0  0  0  0  0
    5.6619    7.5715   24.6521 N   0  0  0  0  0  0  0  0  0  0  0  0
    8.8783    9.4318   21.5588 O   0  0  0  0  0  0  0  0  0  0  0  0
    9.1424    8.9699   20.3354 C   0  0  0  0  0  0  0  0  0  0  0  0
    6.7018    7.1754   25.3694 C   0  0  0  0  0  0  0  0  0  0  0  0
  1  2  1  0
  1  3  1  0
  4  2  1  6
  4  5  1  0
  4  6  1  0
  5  7  1  0
  3  8  1  0
  6  8  1  0
  6  9  1  0
  7  9  1  6
  7 10  1  0
 10 11  1  6
 11 12  1  0
 12 13  1  0
 10 14  1  0
 13 15  1  0
 14 15  1  1
 14 16  1  0
 11 17  1  6
 17 18  1  0
  5 19  1  0
 16 19  1  0
M  END
$$$$
75
     RDKit          3D

 19 21  0  0  0  0  0  0  0  0999 V2000
   11.2842    8.6161   25.2737 C   0  0  0  0  0  0  0  0  0  0  0  0
   10.2539    8.9777   24.5222 C   0  0  0  0  0  0  0  0  0  0  0  0
   10.9142    7.6523   26.3175 C   0  0  0  0  0  0  0  0  0  0  0  0
   11.8264    7.1124   27.2873 C   0  0  0  0  0  0  0  0  0  0  0  0
    9.5204    7.1810   26.4279 C   0  0  0  0  0  0  0  0  0  0  0  0
    8.9615    8.5645   24.5312 C   0  0  0  0  0  0  0  0  0  0  0  0
    8.6429    7.6969   25.4883 C   0  0  0  0  0  0  0  0  0  0  0  0
    7.9551    9.0692   23.5970 C   0  0  1  0  0  0  0  0  0  0  0  0
    8.4003    9.6603   22.4447 N   0  0  0  0  0  0  0  0  0  0  0  0
    8.0797    9.1808   21.1688 C   0  0  0  0  0  0  0  0  0  0  0  0
    6.9474    8.4184   21.1904 C   0  0  2  0  0  0  0  0  0  0  0  0
    8.5270    9.4043   20.1699 O   0  0  0  0  0  0  0  0  0  0  0  0
    6.6490    8.7147   23.6379 C   0  0  2  0  0  0  0  0  0  0  0  0
    6.3981    7.8918   19.9581 C   0  0  0  0  0  0  0  0  0  0  0  0
    5.8506    8.7190   24.7754 C   0  0  0  0  0  0  0  0  0  0  0  0
    6.0081    8.1973   22.3724 C   0  0  0  0  0  0  0  0  0  0  0  0
    4.7910    7.6358   22.5218 C   0  0  0  0  0  0  0  0  0  0  0  0
    4.4977    8.3304   24.6989 C   0  0  0  0  0  0  0  0  0  0  0  0
    4.0112    7.7856   23.5848 C   0  0  0  0  0  0  0  0  0  0  0  0
  1  2  1  0
  1  3  1  0
  3  4  1  0
  3  5  1  0
  2  6  1  0
  5  7  1  0
  6  7  1  0
  8  6  1  6
  8  9  1  0
  9 10  1  0
 10 11  1  0
 10 12  2  0
  8 13  1  0
 11 14  1  6
 13 15  1  1
 11 16  1  0
 13 16  1  0
 16 17  1  0
 15 18  1  0
 17 19  1  0
 18 19  1  0
M  END
$$$$
76
     RDKit          3D

 19 22  0  0  0  0  0  0  0  0999 V2000
   10.6189    6.7253   27.4098 C   0  0  0  0  0  0  0  0  0  0  0  0
    9.4162    6.5623   26.8772 C   0  0  0  0  0  0  0  0  0  0  0  0
   11.5268    7.7276   26.7866 C   0  0  0  0  0  0  0  0  0  0  0  0
    9.1047    7.4620   25.7879 C   0  0  1  0  0  0  0  0  0  0  0  0
   11.0149    8.3017   25.5768 C   0  0  0  0  0  0  0  0  0  0  0  0
    9.8709    8.2010   25.1392 C   0  0  0  0  0  0  0  0  0  0  0  0
    7.8233    7.4582   25.0870 N   0  0  0  0  0  0  0  0  0  0  0  0
    9.3328    8.8287   23.9966 C   0  0  0  0  0  0  0  0  0  0  0  0
    8.0144    8.3765   23.9682 C   0  0  1  0  0  0  0  0  0  0  0  0
    7.0232    8.3639   22.9541 C   0  0  1  0  0  0  0  0  0  0  0  0
    5.7305    8.0303   23.1696 C   0  0  0  0  0  0  0  0  0  0  0  0
    5.1990    7.2350   23.9537 N   0  0  0  0  0  0  0  0  0  0  0  0
    7.1135    9.5134   22.0085 C   0  0  2  0  0  0  0  0  0  0  0  0
    4.7997    8.4640   22.1251 N   0  0  0  0  0  0  0  0  0  0  0  0
    5.7983    9.3081   21.2779 C   0  0  0  0  0  0  0  0  0  0  0  0
    8.2446    9.5432   21.0089 C   0  0  0  0  0  0  0  0  0  0  0  0
    7.8546    9.3784   19.7028 C   0  0  0  0  0  0  0  0  0  0  0  0
    6.6341    9.6064   19.2563 C   0  0  0  0  0  0  0  0  0  0  0  0
    5.4432    9.6520   20.0737 C   0  0  0  0  0  0  0  0  0  0  0  0
  1  2  1  0
  1  3  1  0
  4  2  1  6
  3  5  1  0
  4  6  1  0
  5  6  1  0
  4  7  1  0
  6  8  1  0
  7  9  1  0
  9  8  1  6
  9 10  1  0
 10 11  1  1
 11 12  2  0
 10 13  1  0
 11 14  1  0
 13 15  1  0
 14 15  2  0
 13 16  1  6
 16 17  1  0
 17 18  1  0
 15 19  1  0
 18 19  1  0
M  END
$$$$
77
     RDKit          3D

 19 21  0  0  0  0  0  0  0  0999 V2000
   10.7154    9.0116   24.3343 C   0  0  0  0  0  0  0  0  0  0  0  0
    9.5532    9.0303   23.6518 C   0  0  0  0  0  0  0  0  0  0  0  0
    8.5804    8.4009   24.1650 C   0  0  1  0  0  0  0  0  0  0  0  0
   10.6249    8.1995   25.5399 C   0  0  2  0  0  0  0  0  0  0  0  0
   11.8686    8.0071   26.3544 C   0  0  0  0  0  0  0  0  0  0  0  0
   11.7442    7.0638   27.3608 C   0  0  0  0  0  0  0  0  0  0  0  0
    9.3620    7.6487   25.7311 S   0  0  0  0  0  0  0  0  0  0  0  0
    7.1365    8.2230   23.8802 C   0  0  0  0  0  0  0  0  0  0  0  0
    6.7538    8.7505   22.7884 C   0  0  0  0  0  0  0  0  0  0  0  0
    5.4622    8.5855   22.2785 N   0  0  0  0  0  0  0  0  0  0  0  0
    7.6575    9.4810   22.0170 C   0  0  2  0  0  0  0  0  0  0  0  0
    7.2257   10.0770   20.7862 C   0  0  0  0  0  0  0  0  0  0  0  0
    9.0661    9.6182   22.3650 N   0  0  0  0  0  0  0  0  0  0  0  0
    6.0268    9.7633   20.2643 C   0  0  2  0  0  0  0  0  0  0  0  0
    5.6068   10.3076   19.0166 C   0  0  0  0  0  0  0  0  0  0  0  0
    5.0657    8.9802   20.9742 C   0  0  0  0  0  0  0  0  0  0  0  0
   10.8614    6.0001   27.3732 N   0  0  0  0  0  0  0  0  0  0  0  0
    5.5717    9.8222   17.9326 O   0  0  0  0  0  0  0  0  0  0  0  0
    5.1089   11.5718   18.9494 O   0  0  0  0  0  0  0  0  0  0  0  0
  1  2  1  0
  2  3  1  0
  1  4  1  0
  4  5  1  6
  5  6  1  0
  3  7  1  0
  4  7  1  0
  3  8  1  1
  8  9  1  0
  9 10  1  0
  9 11  1  0
 11 12  1  6
  2 13  1  0
 11 13  1  0
 12 14  1  0
 14 15  1  1
 10 16  1  0
 14 16  1  0
  6 17  1  0
 15 18  2  0
 15 19  1  0
M  END
$$$$
78
     RDKit          3D

 19 21  0  0  0  0  0  0  0  0999 V2000
   11.2884    7.3184   26.9534 C   0  0  0  0  0  0  0  0  0  0  0  0
   11.1435    8.2501   26.0667 C   0  0  0  0  0  0  0  0  0  0  0  0
    9.8894    6.7849   27.1575 C   0  0  0  0  0  0  0  0  0  0  0  0
    9.0166    7.2057   26.0624 C   0  0  0  0  0  0  0  0  0  0  0  0
    7.8954    7.0734   25.6001 N   0  0  0  0  0  0  0  0  0  0  0  0
    9.8764    8.2579   25.2306 C   0  0  1  0  0  0  0  0  0  0  0  0
    9.3139    8.8447   24.1879 C   0  0  0  0  0  0  0  0  0  0  0  0
    7.4542    7.7622   24.4654 C   0  0  0  0  0  0  0  0  0  0  0  0
    8.0823    8.4886   23.9042 C   0  0  1  0  0  0  0  0  0  0  0  0
    7.3893    9.2972   22.5886 C   0  0  2  0  0  0  0  0  0  0  0  0
    5.9340    7.3601   24.1992 C   0  0  1  0  0  0  0  0  0  0  0  0
    6.0932    8.9457   22.4214 C   0  0  0  0  0  0  0  0  0  0  0  0
    5.1876    6.5256   25.0075 O   0  0  0  0  0  0  0  0  0  0  0  0
    5.3583    8.0574   23.1702 C   0  0  0  0  0  0  0  0  0  0  0  0
    8.1560   10.1120   21.8257 N   0  0  0  0  0  0  0  0  0  0  0  0
    8.7634    9.4671   20.7519 C   0  0  0  0  0  0  0  0  0  0  0  0
    7.8390    8.6731   19.9341 C   0  0  0  0  0  0  0  0  0  0  0  0
    7.4928    9.2292   18.6941 C   0  0  0  0  0  0  0  0  0  0  0  0
    7.2523    8.4526   17.7211 N   0  0  0  0  0  0  0  0  0  0  0  0
  1  2  1  0
  1  3  1  0
  3  4  1  0
  4  5  1  0
  6  2  1  1
  4  6  1  0
  6  7  1  0
  5  8  1  0
  9  7  1  1
  8  9  1  0
  9 10  1  0
  8 11  1  0
 10 12  1  0
 11 13  1  1
 11 14  1  0
 12 14  1  0
 10 15  1  6
 15 16  1  0
 16 17  1  0
 17 18  1  0
 18 19  2  0
M  END
$$$$
79
     RDKit          3D

 19 21  0  0  0  0  0  0  0  0999 V2000
   11.2884    7.3184   26.9534 C   0  0  0  0  0  0  0  0  0  0  0  0
   11.1435    8.2501   26.0667 C   0  0  0  0  0  0  0  0  0  0  0  0
   10.1275    8.5501   25.1939 C   0  0  2  0  0  0  0  0  0  0  0  0
   10.0487    6.5954   27.1984 C   0  0  0  0  0  0  0  0  0  0  0  0
    8.9498    6.9942   26.3270 C   0  0  0  0  0  0  0  0  0  0  0  0
    9.0674    7.9443   25.3687 C   0  0  0  0  0  0  0  0  0  0  0  0
    7.9976    8.3110   24.4730 C   0  0  2  0  0  0  0  0  0  0  0  0
    6.6565    7.8694   24.5211 N   0  0  0  0  0  0  0  0  0  0  0  0
    8.1605    9.0556   23.3305 C   0  0  1  0  0  0  0  0  0  0  0  0
    9.3343    9.5556   22.7406 C   0  0  0  0  0  0  0  0  0  0  0  0
   10.4716    9.5317   24.0022 C   0  0  0  0  0  0  0  0  0  0  0  0
    6.8959    8.8896   22.6731 C   0  0  1  0  0  0  0  0  0  0  0  0
    6.0679    8.2712   23.4353 C   0  0  2  0  0  0  0  0  0  0  0  0
    6.6223    9.6754   21.4400 O   0  0  0  0  0  0  0  0  0  0  0  0
    4.6073    8.2569   23.0766 N   0  0  0  0  0  0  0  0  0  0  0  0
    6.8142    8.9830   20.2738 C   0  0  0  0  0  0  0  0  0  0  0  0
    3.7194    8.0421   23.9875 C   0  0  0  0  0  0  0  0  0  0  0  0
    3.7609    8.5047   25.2049 O   0  0  0  0  0  0  0  0  0  0  0  0
    2.3597    7.6566   23.7283 C   0  0  0  0  0  0  0  0  0  0  0  0
  1  2  1  0
  3  2  1  6
  1  4  1  0
  4  5  1  0
  3  6  1  0
  5  6  1  0
  6  7  1  0
  7  8  1  6
  7  9  1  0
  9 10  1  6
  3 11  1  0
 10 11  1  0
  9 12  1  0
  8 13  1  0
 12 13  1  0
 12 14  1  1
 13 15  1  1
 14 16  1  0
 15 17  1  0
 17 18  2  0
 17 19  1  0
M  END
$$$$
8
     RDKit          3D

 13 14  0  0  0  0  0  0  0  0999 V2000
    9.0043    1.3218   19.1577 C   0  0  0  0  0  0  0  0  0  0  0  0
    7.6840    1.6231   19.3803 C   0  0  0  0  0  0  0  0  0  0  0  0
    7.3239    2.8660   19.6982 N   0  0  0  0  0  0  0  0  0  0  0  0
    9.1587    0.1673   18.1074 C   0  0  0  0  0  0  0  0  0  0  0  0
    6.0157    3.4047   19.2979 C   0  0  0  0  0  0  0  0  0  0  0  0
    8.0353   -0.2221   17.4414 C   0  0  0  0  0  0  0  0  0  0  0  0
    7.5606    3.2235   21.1166 C   0  0  0  0  0  0  0  0  0  0  0  0
    6.4883    4.0975   21.5865 N   0  0  0  0  0  0  0  0  0  0  0  0
    5.6394    4.2830   20.4532 C   0  0  0  0  0  0  0  0  0  0  0  0
    8.2850   -1.2207   16.3861 N   0  0  0  0  0  0  0  0  0  0  0  0
    6.5379    1.1993   18.4281 C   0  0  0  0  0  0  0  0  0  0  0  0
    6.7927    0.1344   17.5891 C   0  0  0  0  0  0  0  0  0  0  0  0
    4.4013    4.9743   20.4542 O   0  0  0  0  0  0  0  0  0  0  0  0
  1  2  1  0
  2  3  1  0
  1  4  1  0
  3  5  1  0
  4  6  1  0
  3  7  1  0
  7  8  1  0
  5  9  1  0
  8  9  1  0
  6 10  1  0
  2 11  1  0
  6 12  1  0
 11 12  1  0
  9 13  2  0
M  END
$$$$
80
     RDKit          3D

 19 21  0  0  0  0  0  0  0  0999 V2000
   10.0666    6.5793   27.3703 C   0  0  0  0  0  0  0  0  0  0  0  0
   11.1296    7.2240   27.1545 C   0  0  0  0  0  0  0  0  0  0  0  0
    8.8506    6.9299   26.6053 C   0  0  0  0  0  0  0  0  0  0  0  0
    9.3541    7.8479   25.5053 C   0  0  2  0  0  0  0  0  0  0  0  0
   11.2160    7.9833   25.8814 C   0  0  0  0  0  0  0  0  0  0  0  0
   10.2750    8.3831   25.2405 C   0  0  1  0  0  0  0  0  0  0  0  0
   10.4055    9.3133   23.8693 S   0  0  0  0  0  0  0  0  0  0  0  0
    8.0290    8.2386   24.5561 C   0  0  2  0  0  0  0  0  0  0  0  0
    8.7077    9.0208   23.4874 C   0  0  0  0  0  0  0  0  0  0  0  0
    7.8254    9.3061   22.4544 C   0  0  1  0  0  0  0  0  0  0  0  0
    6.6463    8.1087   24.5847 C   0  0  0  0  0  0  0  0  0  0  0  0
    5.9262    8.4460   23.5760 C   0  0  0  0  0  0  0  0  0  0  0  0
    6.4407    9.0008   22.6096 C   0  0  0  0  0  0  0  0  0  0  0  0
    4.4612    8.1528   23.6361 C   0  0  0  0  0  0  0  0  0  0  0  0
    8.3103   10.0216   21.2282 C   0  0  0  0  0  0  0  0  0  0  0  0
    3.6335    8.8848   23.1532 O   0  0  0  0  0  0  0  0  0  0  0  0
    8.7530    9.2451   20.2920 O   0  0  0  0  0  0  0  0  0  0  0  0
    3.9986    7.2276   24.5277 O   0  0  0  0  0  0  0  0  0  0  0  0
    7.9099    8.4866   19.4726 C   0  0  0  0  0  0  0  0  0  0  0  0
  1  2  1  0
  1  3  1  0
  4  3  1  1
  2  5  1  0
  4  6  1  0
  6  5  1  6
  6  7  1  0
  4  8  1  0
  7  9  1  0
  8  9  1  0
  9 10  1  0
  8 11  1  1
 11 12  1  0
 10 13  1  0
 12 13  1  0
 12 14  1  0
 10 15  1  1
 14 16  2  0
 15 17  1  0
 14 18  1  0
 17 19  1  0
M  END
$$$$
81
     RDKit          3D

 19 21  0  0  0  0  0  0  0  0999 V2000
   10.3882    7.1623   27.0729 C   0  0  0  0  0  0  0  0  0  0  0  0
    9.2960    7.0542   26.4025 C   0  0  0  0  0  0  0  0  0  0  0  0
   11.4415    7.6449   26.5732 C   0  0  0  0  0  0  0  0  0  0  0  0
    9.0812    7.7948   25.2086 C   0  0  0  0  0  0  0  0  0  0  0  0
    7.8636    7.9095   24.4491 C   0  0  0  0  0  0  0  0  0  0  0  0
   11.4440    8.4394   25.3093 C   0  0  0  0  0  0  0  0  0  0  0  0
   10.1294    8.5030   24.6630 C   0  0  0  0  0  0  0  0  0  0  0  0
    7.9286    8.7365   23.3480 C   0  0  0  0  0  0  0  0  0  0  0  0
   10.0275    9.3718   23.4521 N   0  0  0  0  0  0  0  0  0  0  0  0
    6.5733    8.8261   22.6176 C   0  0  0  0  0  0  0  0  0  0  0  0
    8.9273    9.3974   22.8532 C   0  0  0  0  0  0  0  0  0  0  0  0
    6.5739    9.2357   21.3346 N   0  0  0  0  0  0  0  0  0  0  0  0
    5.4338    8.2970   23.1171 N   0  0  0  0  0  0  0  0  0  0  0  0
    5.3763    9.0324   20.6578 C   0  0  0  0  0  0  0  0  0  0  0  0
    4.5552    8.3655   21.8325 C   0  0  2  0  0  0  0  0  0  0  0  0
    3.2130    7.9627   21.8175 C   0  0  0  0  0  0  0  0  0  0  0  0
    2.7556    7.0628   20.9360 O   0  0  0  0  0  0  0  0  0  0  0  0
    2.4229    8.0237   22.9844 N   0  0  0  0  0  0  0  0  0  0  0  0
    1.0198    7.5114   22.9860 C   0  0  0  0  0  0  0  0  0  0  0  0
  1  2  1  0
  1  3  1  0
  2  4  1  0
  4  5  1  0
  3  6  1  0
  4  7  1  0
  6  7  1  0
  5  8  1  0
  7  9  1  0
  8 10  1  0
  8 11  1  0
  9 11  1  0
 10 12  2  0
 10 13  1  0
 12 14  1  0
 13 15  1  0
 14 15  1  0
 15 16  1  1
 16 17  2  0
 16 18  1  0
 18 19  1  0
M  END
$$$$
82
     RDKit          3D

 19 21  0  0  0  0  0  0  0  0999 V2000
   10.5807    6.5000   27.4140 C   0  0  0  0  0  0  0  0  0  0  0  0
    9.3957    6.4938   26.8757 N   0  0  0  0  0  0  0  0  0  0  0  0
   11.4806    7.4886   26.9253 C   0  0  0  0  0  0  0  0  0  0  0  0
    9.2375    7.3966   25.8939 C   0  0  2  0  0  0  0  0  0  0  0  0
    7.9465    7.3645   25.1874 N   0  0  0  0  0  0  0  0  0  0  0  0
   10.0966    8.2280   25.2279 C   0  0  0  0  0  0  0  0  0  0  0  0
    8.0629    8.3391   24.1401 C   0  0  1  0  0  0  0  0  0  0  0  0
   11.3087    8.2431   25.7271 C   0  0  0  0  0  0  0  0  0  0  0  0
    9.4305    8.8728   24.1479 C   0  0  0  0  0  0  0  0  0  0  0  0
    7.0236    8.6617   23.1561 C   0  0  1  0  0  0  0  0  0  0  0  0
    7.4013    9.1324   21.9634 C   0  0  2  0  0  0  0  0  0  0  0  0
    6.5447    9.3038   20.9799 N   0  0  0  0  0  0  0  0  0  0  0  0
    5.3164    8.7509   21.3710 C   0  0  0  0  0  0  0  0  0  0  0  0
    5.7868    7.9773   23.2000 C   0  0  2  0  0  0  0  0  0  0  0  0
    5.0578    8.2124   22.4258 N   0  0  0  0  0  0  0  0  0  0  0  0
    5.6619    7.5715   24.6521 N   0  0  0  0  0  0  0  0  0  0  0  0
    8.8783    9.4318   21.5588 O   0  0  0  0  0  0  0  0  0  0  0  0
    9.1424    8.9699   20.3354 C   0  0  0  0  0  0  0  0  0  0  0  0
    4.3118    7.4228   24.9981 C   0  0  0  0  0  0  0  0  0  0  0  0
  1  2  1  0
  1  3  1  0
  4  2  1  6
  4  5  1  0
  4  6  1  0
  5  7  1  0
  3  8  1  0
  6  8  1  0
  6  9  1  0
  7  9  1  6
 10  7  1  6
 10 11  1  0
 11 12  1  0
 12 13  1  0
 10 14  1  0
 13 15  1  0
 14 15  1  0
 14 16  1  1
 11 17  1  6
 17 18  1  0
 16 19  1  0
M  END
$$$$
83
     RDKit          3D

 19 22  0  0  0  0  0  0  0  0999 V2000
   10.6189    6.7253   27.4098 C   0  0  0  0  0  0  0  0  0  0  0  0
    9.4162    6.5623   26.8772 C   0  0  0  0  0  0  0  0  0  0  0  0
   11.5268    7.7276   26.7866 C   0  0  0  0  0  0  0  0  0  0  0  0
    9.1047    7.4620   25.7879 C   0  0  1  0  0  0  0  0  0  0  0  0
   11.0149    8.3017   25.5768 C   0  0  0  0  0  0  0  0  0  0  0  0
    9.8709    8.2010   25.1392 C   0  0  0  0  0  0  0  0  0  0  0  0
    7.8233    7.4582   25.0870 N   0  0  0  0  0  0  0  0  0  0  0  0
    9.3328    8.8287   23.9966 C   0  0  0  0  0  0  0  0  0  0  0  0
    8.0144    8.3765   23.9682 C   0  0  1  0  0  0  0  0  0  0  0  0
    7.0232    8.3639   22.9541 C   0  0  1  0  0  0  0  0  0  0  0  0
    5.7305    8.0303   23.1696 C   0  0  0  0  0  0  0  0  0  0  0  0
    5.1990    7.2350   23.9537 N   0  0  0  0  0  0  0  0  0  0  0  0
    7.1135    9.5134   22.0085 C   0  0  2  0  0  0  0  0  0  0  0  0
    4.7997    8.4640   22.1251 N   0  0  0  0  0  0  0  0  0  0  0  0
    5.7983    9.3081   21.2779 C   0  0  0  0  0  0  0  0  0  0  0  0
    8.2446    9.5432   21.0089 C   0  0  0  0  0  0  0  0  0  0  0  0
    7.8546    9.3784   19.7028 C   0  0  0  0  0  0  0  0  0  0  0  0
    6.6341    9.6064   19.2563 C   0  0  0  0  0  0  0  0  0  0  0  0
    5.5214    9.3625   19.9936 N   0  0  0  0  0  0  0  0  0  0  0  0
  1  2  1  0
  1  3  1  0
  4  2  1  6
  3  5  1  0
  4  6  1  0
  5  6  1  0
  4  7  1  0
  6  8  1  0
  7  9  1  0
  9  8  1  6
  9 10  1  0
 10 11  1  1
 11 12  2  0
 10 13  1  0
 11 14  1  0
 13 15  1  0
 14 15  2  0
 13 16  1  6
 16 17  1  0
 17 18  1  0
 15 19  1  0
 18 19  1  0
M  END
$$$$
84
     RDKit          3D

 19 21  0  0  0  0  0  0  0  0999 V2000
    9.6988    6.1577   27.5765 N   0  0  0  0  0  0  0  0  0  0  0  0
    9.0331    6.7007   26.5940 C   0  0  0  0  0  0  0  0  0  0  0  0
   11.0010    6.5957   27.7258 C   0  0  0  0  0  0  0  0  0  0  0  0
   11.5278    7.5342   26.8591 C   0  0  0  0  0  0  0  0  0  0  0  0
   10.8742    8.0879   25.7866 C   0  0  0  0  0  0  0  0  0  0  0  0
    9.5911    7.7855   25.6856 C   0  0  1  0  0  0  0  0  0  0  0  0
    8.6491    8.2807   24.5660 C   0  0  0  0  0  0  0  0  0  0  0  0
    8.9629    9.3882   23.9345 C   0  0  0  0  0  0  0  0  0  0  0  0
    8.0803    9.7997   22.8789 C   0  0  0  0  0  0  0  0  0  0  0  0
    7.4877    7.6688   24.0582 C   0  0  0  0  0  0  0  0  0  0  0  0
    6.6451    6.8838   24.5709 N   0  0  0  0  0  0  0  0  0  0  0  0
    8.2587   10.4579   21.7890 N   0  0  0  0  0  0  0  0  0  0  0  0
    6.7919    9.0514   22.8811 S   0  0  0  0  0  0  0  0  0  0  0  0
    6.7497    7.6829   23.3087 C   0  0  0  0  0  0  0  0  0  0  0  0
    8.0998   10.2515   20.3816 C   0  0  0  0  0  0  0  0  0  0  0  0
    8.1581    8.9734   19.9005 C   0  0  0  0  0  0  0  0  0  0  0  0
    7.4239    8.6311   18.7764 N   0  0  0  0  0  0  0  0  0  0  0  0
    7.7952   11.1397   19.5679 O   0  0  0  0  0  0  0  0  0  0  0  0
    9.0193    8.0549   20.4558 O   0  0  0  0  0  0  0  0  0  0  0  0
  1  2  1  0
  1  3  1  0
  3  4  1  0
  4  5  1  0
  2  6  1  0
  5  6  1  0
  6  7  1  6
  7  8  2  0
  8  9  1  0
  7 10  1  0
 10 11  1  0
  9 12  1  0
  9 13  2  0
 10 14  2  0
 11 14  1  0
 13 14  1  0
 12 15  1  0
 15 16  1  0
 16 17  1  0
 15 18  2  0
 16 19  2  0
M  END
$$$$
85
     RDKit          3D

 19 20  0  0  0  0  0  0  0  0999 V2000
    9.8452    8.8617   24.5490 C   0  0  0  0  0  0  0  0  0  0  0  0
    8.6619    8.5654   24.3110 C   0  0  1  0  0  0  0  0  0  0  0  0
   10.5896    8.3429   25.3425 C   0  0  0  0  0  0  0  0  0  0  0  0
   10.0367    7.4247   26.2502 C   0  0  2  0  0  0  0  0  0  0  0  0
    7.9798    7.6287   25.1770 C   0  0  0  0  0  0  0  0  0  0  0  0
   10.8757    6.7005   27.2989 C   0  0  0  0  0  0  0  0  0  0  0  0
   12.1050    6.9512   27.3836 N   0  0  0  0  0  0  0  0  0  0  0  0
   10.0733    5.8136   27.8826 N   0  0  0  0  0  0  0  0  0  0  0  0
    7.7265    9.2925   23.0767 C   0  0  0  0  0  0  0  0  0  0  0  0
    8.7149    7.0732   26.0478 C   0  0  0  0  0  0  0  0  0  0  0  0
    8.4147    9.8654   22.1720 O   0  0  0  0  0  0  0  0  0  0  0  0
    8.2412    9.3431   20.8422 C   0  0  1  0  0  0  0  0  0  0  0  0
    6.5766    9.3614   23.2572 O   0  0  0  0  0  0  0  0  0  0  0  0
    8.7935    8.1928   20.4779 C   0  0  0  0  0  0  0  0  0  0  0  0
    6.7794    9.2877   20.3603 C   0  0  0  0  0  0  0  0  0  0  0  0
    8.1221    7.1729   20.6699 C   0  0  0  0  0  0  0  0  0  0  0  0
    9.1387   10.6774   20.3093 O   0  0  0  0  0  0  0  0  0  0  0  0
    6.6929    7.5897   20.3318 C   0  0  2  0  0  0  0  0  0  0  0  0
    6.0333    7.4502   19.1517 O   0  0  0  0  0  0  0  0  0  0  0  0
  1  2  1  0
  1  3  1  0
  3  4  1  0
  2  5  1  0
  4  6  1  6
  6  7  2  0
  6  8  1  0
  2  9  1  1
  4 10  1  0
  5 10  1  0
  9 11  1  0
 11 12  1  0
  9 13  2  0
 12 14  1  0
 12 15  1  0
 14 16  1  0
 12 17  1  6
 15 18  1  0
 16 18  1  0
 18 19  1  6
M  END
$$$$
86
     RDKit          3D

 19 22  0  0  0  0  0  0  0  0999 V2000
   10.6189    6.7253   27.4098 C   0  0  0  0  0  0  0  0  0  0  0  0
   11.1757    7.7599   26.7022 C   0  0  0  0  0  0  0  0  0  0  0  0
    9.2905    6.4645   27.0024 N   0  0  0  0  0  0  0  0  0  0  0  0
    9.0465    7.2604   25.8992 C   0  0  2  0  0  0  0  0  0  0  0  0
    7.9613    7.3388   25.0666 N   0  0  0  0  0  0  0  0  0  0  0  0
    7.8471    8.1173   24.0029 C   0  0  1  0  0  0  0  0  0  0  0  0
   10.1415    8.1117   25.4220 C   0  0  1  0  0  0  0  0  0  0  0  0
    6.5994    8.1616   23.2256 C   0  0  2  0  0  0  0  0  0  0  0  0
    8.9056    9.0613   23.7389 C   0  0  0  0  0  0  0  0  0  0  0  0
    5.4356    8.1625   23.7710 C   0  0  0  0  0  0  0  0  0  0  0  0
   10.2055    8.9763   24.4669 C   0  0  0  0  0  0  0  0  0  0  0  0
    6.7434    8.0280   21.8129 C   0  0  2  0  0  0  0  0  0  0  0  0
    5.5299    7.9581   21.0540 C   0  0  2  0  0  0  0  0  0  0  0  0
    7.6821    7.8163   20.9563 O   0  0  0  0  0  0  0  0  0  0  0  0
    4.2684    8.0345   21.7229 C   0  0  0  0  0  0  0  0  0  0  0  0
    4.3230    8.1469   23.0770 C   0  0  0  0  0  0  0  0  0  0  0  0
    5.9222    7.6748   19.7973 N   0  0  0  0  0  0  0  0  0  0  0  0
    5.0239    7.5528   18.6887 C   0  0  0  0  0  0  0  0  0  0  0  0
    7.2811    7.6464   19.7254 C   0  0  0  0  0  0  0  0  0  0  0  0
  1  2  1  0
  1  3  1  0
  4  3  1  6
  4  5  1  0
  5  6  1  0
  7  2  1  1
  4  7  1  0
  6  8  1  0
  6  9  1  1
  8 10  1  1
  7 11  1  0
  9 11  1  0
  8 12  1  0
 12 13  1  0
 12 14  1  1
 13 15  1  1
 10 16  1  0
 15 16  1  0
 13 17  1  0
 17 18  1  0
 14 19  1  0
 17 19  1  0
M  END
$$$$
87
     RDKit          3D

 19 21  0  0  0  0  0  0  0  0999 V2000
   10.0425    8.5001   25.1915 C   0  0  0  0  0  0  0  0  0  0  0  0
   10.4373    7.7113   25.9683 C   0  0  2  0  0  0  0  0  0  0  0  0
    8.9463    8.3408   24.5700 C   0  0  2  0  0  0  0  0  0  0  0  0
    8.3011    9.1947   23.5814 C   0  0  0  0  0  0  0  0  0  0  0  0
    6.8925    8.8419   23.1813 C   0  0  0  0  0  0  0  0  0  0  0  0
    8.2091    7.4256   25.2159 C   0  0  1  0  0  0  0  0  0  0  0  0
    6.9287    7.1869   24.8393 N   0  0  0  0  0  0  0  0  0  0  0  0
    6.2908    7.8245   23.8658 C   0  0  1  0  0  0  0  0  0  0  0  0
    4.7663    7.5212   23.6546 C   0  0  0  0  0  0  0  0  0  0  0  0
    9.1548    6.8317   26.0756 N   0  0  0  0  0  0  0  0  0  0  0  0
   11.3524    7.2017   27.0271 C   0  0  0  0  0  0  0  0  0  0  0  0
    4.0065    7.9519   24.4516 C   0  0  0  0  0  0  0  0  0  0  0  0
    2.5811    7.5771   24.3460 C   0  0  0  0  0  0  0  0  0  0  0  0
    2.2532    6.7550   23.3087 C   0  0  0  0  0  0  0  0  0  0  0  0
    4.5039    6.7896   22.4332 C   0  0  0  0  0  0  0  0  0  0  0  0
    0.8500    6.3361   23.2306 C   0  0  0  0  0  0  0  0  0  0  0  0
    2.9962    6.2090   22.3209 C   0  0  0  0  0  0  0  0  0  0  0  0
    0.4234    5.4486   22.3493 O   0  0  0  0  0  0  0  0  0  0  0  0
   -0.0776    6.9841   23.9434 O   0  0  0  0  0  0  0  0  0  0  0  0
  1  2  1  0
  3  1  1  1
  3  4  1  0
  4  5  1  0
  3  6  1  0
  6  7  1  6
  5  8  1  0
  7  8  1  0
  8  9  1  1
  2 10  1  0
  6 10  1  0
  2 11  1  1
  9 12  1  0
 12 13  1  0
 13 14  1  0
  9 15  1  0
 14 16  1  0
 14 17  1  0
 15 17  1  0
 16 18  2  0
 16 19  1  0
M  END
$$$$
88
     RDKit          3D

 19 22  0  0  0  0  0  0  0  0999 V2000
   10.0425    8.5001   25.1915 C   0  0  0  0  0  0  0  0  0  0  0  0
   10.4373    7.7113   25.9683 C   0  0  0  0  0  0  0  0  0  0  0  0
    8.9463    8.3408   24.5700 C   0  0  2  0  0  0  0  0  0  0  0  0
    9.6577    6.6951   26.5360 C   0  0  2  0  0  0  0  0  0  0  0  0
    8.3425    6.6821   26.0641 C   0  0  0  0  0  0  0  0  0  0  0  0
    8.3997    9.3507   23.5674 C   0  0  0  0  0  0  0  0  0  0  0  0
    7.9683    7.5539   25.0593 C   0  0  2  0  0  0  0  0  0  0  0  0
   10.1515    6.0056   27.6478 N   0  0  0  0  0  0  0  0  0  0  0  0
    6.5829    7.4596   24.3992 C   0  0  1  0  0  0  0  0  0  0  0  0
    5.6921    6.5363   24.8413 O   0  0  0  0  0  0  0  0  0  0  0  0
    6.1103    8.3260   23.4827 C   0  0  0  0  0  0  0  0  0  0  0  0
    4.8257    8.3777   23.0735 O   0  0  0  0  0  0  0  0  0  0  0  0
    7.0521    9.2858   22.9190 C   0  0  0  0  0  0  0  0  0  0  0  0
    4.0444    7.4803   23.3390 C   0  0  1  0  0  0  0  0  0  0  0  0
    4.4489    6.4695   24.3224 C   0  0  1  0  0  0  0  0  0  0  0  0
    2.7850    7.4498   22.8845 C   0  0  0  0  0  0  0  0  0  0  0  0
    1.8128    6.4681   23.2116 C   0  0  0  0  0  0  0  0  0  0  0  0
    2.2540    5.4558   24.1752 C   0  0  0  0  0  0  0  0  0  0  0  0
    3.5420    5.4684   24.6042 C   0  0  0  0  0  0  0  0  0  0  0  0
  1  2  1  0
  3  1  1  1
  2  4  1  0
  4  5  1  0
  3  6  1  0
  3  7  1  0
  7  5  1  6
  4  8  1  1
  7  9  1  0
  9 10  1  1
  9 11  1  0
 11 12  1  0
  6 13  1  0
 11 13  1  0
 12 14  1  0
 10 15  1  0
 14 15  1  0
 14 16  1  1
 16 17  1  0
 17 18  1  0
 15 19  1  6
 18 19  1  0
M  END
$$$$
89
     RDKit          3D

 20 23  0  0  0  0  0  0  0  0999 V2000
   11.2842    8.6161   25.2737 C   0  0  0  0  0  0  0  0  0  0  0  0
   10.2539    8.9777   24.5222 C   0  0  0  0  0  0  0  0  0  0  0  0
   10.9142    7.6523   26.3175 C   0  0  2  0  0  0  0  0  0  0  0  0
   11.8264    7.1124   27.2873 C   0  0  0  0  0  0  0  0  0  0  0  0
    9.4936    7.2559   26.1751 C   0  0  0  0  0  0  0  0  0  0  0  0
    9.0287    8.3612   24.5651 C   0  0  2  0  0  0  0  0  0  0  0  0
    8.0404    8.9710   23.5567 C   0  0  2  0  0  0  0  0  0  0  0  0
    6.6742    8.5585   23.7384 C   0  0  2  0  0  0  0  0  0  0  0  0
    8.5895    7.4961   25.3843 C   0  0  0  0  0  0  0  0  0  0  0  0
    8.3789    9.7297   22.4827 C   0  0  0  0  0  0  0  0  0  0  0  0
    6.0930    8.4033   25.0054 O   0  0  0  0  0  0  0  0  0  0  0  0
    4.7603    8.2033   25.0096 C   0  0  0  0  0  0  0  0  0  0  0  0
    5.7433    8.1749   22.7318 C   0  0  0  0  0  0  0  0  0  0  0  0
    4.4520    7.9853   23.5036 C   0  0  0  0  0  0  0  0  0  0  0  0
    7.7521    9.6561   21.1255 C   0  0  1  0  0  0  0  0  0  0  0  0
    8.3292   10.4008   20.0748 O   0  0  0  0  0  0  0  0  0  0  0  0
    6.6299    8.7675   20.7871 C   0  0  2  0  0  0  0  0  0  0  0  0
    7.7768    9.8085   18.9044 C   0  0  0  0  0  0  0  0  0  0  0  0
    5.8319    8.0026   21.4305 C   0  0  0  0  0  0  0  0  0  0  0  0
    6.7558    8.8527   19.2617 C   0  0  0  0  0  0  0  0  0  0  0  0
  1  2  1  0
  1  3  1  0
  3  4  1  6
  3  5  1  0
  6  2  1  1
  6  7  1  0
  7  8  1  0
  5  9  1  0
  6  9  1  0
  7 10  1  6
  8 11  1  1
 11 12  1  0
  8 13  1  0
 12 14  1  0
 13 14  1  0
 15 10  1  6
 15 16  1  0
 15 17  1  0
 16 18  1  0
 13 19  1  0
 17 19  1  1
 17 20  1  0
 18 20  1  0
M  END
$$$$
9
     RDKit          3D

 13 14  0  0  0  0  0  0  0  0999 V2000
   10.2611    8.0590   25.6410 C   0  0  1  0  0  0  0  0  0  0  0  0
   10.2846    7.3067   26.4569 C   0  0  0  0  0  0  0  0  0  0  0  0
    9.0727    6.7276   26.9165 C   0  0  0  0  0  0  0  0  0  0  0  0
   11.4970    8.7993   25.0257 C   0  0  0  0  0  0  0  0  0  0  0  0
    9.0328    8.4223   24.7553 C   0  0  1  0  0  0  0  0  0  0  0  0
    7.8463    7.7326   25.1823 C   0  0  1  0  0  0  0  0  0  0  0  0
    6.6608    7.9453   24.4673 C   0  0  0  0  0  0  0  0  0  0  0  0
    8.1018    6.7916   26.1599 C   0  0  0  0  0  0  0  0  0  0  0  0
    9.0708    9.4494   23.6079 C   0  0  0  0  0  0  0  0  0  0  0  0
    6.7072    8.9285   23.3827 C   0  0  0  0  0  0  0  0  0  0  0  0
    5.4702    9.0979   22.7029 O   0  0  0  0  0  0  0  0  0  0  0  0
    7.7567    9.6917   22.9999 C   0  0  0  0  0  0  0  0  0  0  0  0
    5.2677    8.2812   21.5054 C   0  0  0  0  0  0  0  0  0  0  0  0
  1  2  1  0
  2  3  1  0
  1  4  1  6
  1  5  1  0
  5  6  1  0
  6  7  1  6
  3  8  1  0
  6  8  1  0
  5  9  1  1
  7 10  1  0
 10 11  1  0
  9 12  1  0
 10 12  1  0
 11 13  1  0
M  END
$$$$
90
     RDKit          3D

 20 22  0  0  0  0  0  0  0  0999 V2000
   11.2842    8.6161   25.2737 C   0  0  0  0  0  0  0  0  0  0  0  0
   10.2539    8.9777   24.5222 C   0  0  0  0  0  0  0  0  0  0  0  0
   10.9142    7.6523   26.3175 C   0  0  0  0  0  0  0  0  0  0  0  0
   11.8264    7.1124   27.2873 C   0  0  0  0  0  0  0  0  0  0  0  0
    9.5204    7.1810   26.4279 C   0  0  0  0  0  0  0  0  0  0  0  0
    8.9615    8.5645   24.5312 C   0  0  0  0  0  0  0  0  0  0  0  0
    8.6429    7.6969   25.4883 C   0  0  0  0  0  0  0  0  0  0  0  0
    7.9551    9.0692   23.5970 C   0  0  1  0  0  0  0  0  0  0  0  0
    8.4003    9.6603   22.4447 N   0  0  0  0  0  0  0  0  0  0  0  0
    8.0797    9.1808   21.1688 C   0  0  0  0  0  0  0  0  0  0  0  0
    6.9474    8.4184   21.1904 C   0  0  2  0  0  0  0  0  0  0  0  0
    8.5270    9.4043   20.1699 O   0  0  0  0  0  0  0  0  0  0  0  0
    6.2558    7.9727   22.3468 C   0  0  2  0  0  0  0  0  0  0  0  0
    5.0195    7.3495   22.3238 C   0  0  0  0  0  0  0  0  0  0  0  0
    6.6829    8.6102   23.5764 N   0  0  0  0  0  0  0  0  0  0  0  0
    4.6921    6.8601   21.0079 C   0  0  0  0  0  0  0  0  0  0  0  0
    5.4742    7.1347   19.9562 C   0  0  2  0  0  0  0  0  0  0  0  0
    4.9920    6.5508   18.6584 O   0  0  0  0  0  0  0  0  0  0  0  0
    6.5409    7.6973   20.0053 C   0  0  0  0  0  0  0  0  0  0  0  0
    3.6789    6.3188   18.4309 C   0  0  0  0  0  0  0  0  0  0  0  0
  1  2  1  0
  1  3  1  0
  3  4  1  0
  3  5  1  0
  2  6  1  0
  5  7  1  0
  6  7  1  0
  8  6  1  6
  8  9  1  0
  9 10  1  0
 10 11  1  0
 10 12  2  0
 11 13  1  0
 13 14  1  6
  8 15  1  0
 13 15  1  0
 14 16  1  0
 16 17  1  0
 17 18  1  1
 11 19  1  6
 17 19  1  0
 18 20  1  0
M  END
$$$$
91
     RDKit          3D

 20 23  0  0  0  0  0  0  0  0999 V2000
   10.6189    6.7253   27.4098 C   0  0  0  0  0  0  0  0  0  0  0  0
    9.4162    6.5623   26.8772 C   0  0  0  0  0  0  0  0  0  0  0  0
   11.5268    7.7276   26.7866 C   0  0  0  0  0  0  0  0  0  0  0  0
    9.1047    7.4620   25.7879 C   0  0  1  0  0  0  0  0  0  0  0  0
   11.0149    8.3017   25.5768 C   0  0  0  0  0  0  0  0  0  0  0  0
    9.8709    8.2010   25.1392 C   0  0  0  0  0  0  0  0  0  0  0  0
    7.8233    7.4582   25.0870 N   0  0  0  0  0  0  0  0  0  0  0  0
    9.3328    8.8287   23.9966 C   0  0  0  0  0  0  0  0  0  0  0  0
    8.0144    8.3765   23.9682 C   0  0  1  0  0  0  0  0  0  0  0  0
    7.0232    8.3639   22.9541 C   0  0  1  0  0  0  0  0  0  0  0  0
    5.7305    8.0303   23.1696 C   0  0  0  0  0  0  0  0  0  0  0  0
    5.1990    7.2350   23.9537 N   0  0  0  0  0  0  0  0  0  0  0  0
    7.1135    9.5134   22.0085 C   0  0  2  0  0  0  0  0  0  0  0  0
    4.7997    8.4640   22.1251 N   0  0  0  0  0  0  0  0  0  0  0  0
    5.7983    9.3081   21.2779 C   0  0  0  0  0  0  0  0  0  0  0  0
    8.1747   10.1146   21.3256 C   0  0  0  0  0  0  0  0  0  0  0  0
    5.3761    9.9283   20.1342 N   0  0  0  0  0  0  0  0  0  0  0  0
    7.8107   10.8156   20.0815 C   0  0  1  0  0  0  0  0  0  0  0  0
    8.7573   11.4308   19.4331 O   0  0  0  0  0  0  0  0  0  0  0  0
    6.4816   10.6017   19.5149 C   0  0  0  0  0  0  0  0  0  0  0  0
  1  2  1  0
  1  3  1  0
  4  2  1  6
  3  5  1  0
  4  6  1  0
  5  6  1  0
  4  7  1  0
  6  8  1  0
  7  9  1  0
  9  8  1  6
  9 10  1  0
 10 11  1  1
 11 12  2  0
 10 13  1  0
 11 14  1  0
 13 15  1  0
 14 15  2  0
 13 16  1  6
 15 17  1  0
 16 18  1  0
 18 19  1  6
 17 20  1  0
 18 20  1  0
M  END
$$$$
92
     RDKit          3D

 20 23  0  0  0  0  0  0  0  0999 V2000
   10.7154    9.0116   24.3343 C   0  0  0  0  0  0  0  0  0  0  0  0
    9.5532    9.0303   23.6518 C   0  0  0  0  0  0  0  0  0  0  0  0
    8.5804    8.4009   24.1650 C   0  0  1  0  0  0  0  0  0  0  0  0
   10.6249    8.1995   25.5399 C   0  0  2  0  0  0  0  0  0  0  0  0
   11.8686    8.0071   26.3544 C   0  0  0  0  0  0  0  0  0  0  0  0
   11.7442    7.0638   27.3608 C   0  0  0  0  0  0  0  0  0  0  0  0
    9.3620    7.6487   25.7311 S   0  0  2  0  0  0  0  0  0  0  0  0
    7.1365    8.2230   23.8802 C   0  0  0  0  0  0  0  0  0  0  0  0
    6.7538    8.7505   22.7884 C   0  0  0  0  0  0  0  0  0  0  0  0
    5.4622    8.5855   22.2785 N   0  0  0  0  0  0  0  0  0  0  0  0
    7.6575    9.4810   22.0170 C   0  0  2  0  0  0  0  0  0  0  0  0
    7.2257   10.0770   20.7862 C   0  0  0  0  0  0  0  0  0  0  0  0
    9.0661    9.6182   22.3650 N   0  0  0  0  0  0  0  0  0  0  0  0
    6.0268    9.7633   20.2643 C   0  0  2  0  0  0  0  0  0  0  0  0
    5.6068   10.3076   19.0166 C   0  0  0  0  0  0  0  0  0  0  0  0
    5.0657    8.9802   20.9742 C   0  0  0  0  0  0  0  0  0  0  0  0
   10.6005    6.0829   27.2604 C   0  0  0  0  0  0  0  0  0  0  0  0
    5.8427    9.8783   17.9003 O   0  0  0  0  0  0  0  0  0  0  0  0
    9.3706    6.6395   27.2197 C   0  0  0  0  0  0  0  0  0  0  0  0
    4.7795   11.3878   18.9030 O   0  0  0  0  0  0  0  0  0  0  0  0
  1  2  1  0
  2  3  1  0
  4  1  1  6
  4  5  1  0
  5  6  1  0
  3  7  1  0
  4  7  1  0
  3  8  1  1
  8  9  1  0
  9 10  1  0
  9 11  1  0
 11 12  1  6
  2 13  1  0
 11 13  1  0
 12 14  1  0
 14 15  1  1
 10 16  1  0
 14 16  1  0
  6 17  1  0
 15 18  2  0
  7 19  1  0
 17 19  1  0
 15 20  1  0
M  END
$$$$
93
     RDKit          3D

 20 22  0  0  0  0  0  0  0  0999 V2000
    9.6988    6.1577   27.5765 N   0  0  0  0  0  0  0  0  0  0  0  0
   10.5680    7.0855   27.1384 C   0  0  0  0  0  0  0  0  0  0  0  0
   10.2922    7.9397   26.1744 C   0  0  2  0  0  0  0  0  0  0  0  0
   11.7450    7.1645   27.7950 N   0  0  0  0  0  0  0  0  0  0  0  0
    9.0400    7.9747   25.4937 C   0  0  0  0  0  0  0  0  0  0  0  0
    8.9007    8.4889   24.4066 C   0  0  2  0  0  0  0  0  0  0  0  0
   10.0367    9.1873   23.8749 C   0  0  0  0  0  0  0  0  0  0  0  0
   11.3368    8.5354   25.4170 C   0  0  0  0  0  0  0  0  0  0  0  0
   11.1614    9.1016   24.4242 C   0  0  0  0  0  0  0  0  0  0  0  0
    7.5417    8.5839   23.7743 C   0  0  0  0  0  0  0  0  0  0  0  0
    7.3897    8.7799   22.4886 C   0  0  2  0  0  0  0  0  0  0  0  0
    6.3988    8.4985   24.6314 C   0  0  0  0  0  0  0  0  0  0  0  0
    5.1588    8.5138   23.9866 C   0  0  1  0  0  0  0  0  0  0  0  0
    6.1495    8.6404   21.8450 C   0  0  0  0  0  0  0  0  0  0  0  0
    6.0516    8.6950   20.4666 C   0  0  0  0  0  0  0  0  0  0  0  0
    5.0379    8.4913   22.6475 N   0  0  0  0  0  0  0  0  0  0  0  0
    4.0689    8.3211   24.8971 N   0  0  0  0  0  0  0  0  0  0  0  0
    7.1285    8.9297   19.7380 C   0  0  0  0  0  0  0  0  0  0  0  0
    8.4236    9.0309   20.3163 C   0  0  0  0  0  0  0  0  0  0  0  0
    8.5516    8.9365   21.6312 C   0  0  0  0  0  0  0  0  0  0  0  0
  1  2  1  0
  3  2  1  6
  2  4  2  0
  3  5  1  0
  5  6  1  0
  6  7  1  0
  3  8  1  0
  7  9  1  0
  8  9  1  0
  6 10  1  1
 10 11  1  0
 10 12  1  0
 12 13  1  0
 11 14  1  0
 14 15  1  0
 13 16  1  0
 14 16  1  0
 13 17  1  1
 15 18  1  0
 18 19  1  0
 11 20  1  6
 19 20  1  0
M  END
$$$$
94
     RDKit          3D

 20 23  0  0  0  0  0  0  0  0999 V2000
   11.2842    8.6161   25.2737 C   0  0  0  0  0  0  0  0  0  0  0  0
   10.2539    8.9777   24.5222 C   0  0  0  0  0  0  0  0  0  0  0  0
   10.9142    7.6523   26.3175 C   0  0  2  0  0  0  0  0  0  0  0  0
   11.8264    7.1124   27.2873 C   0  0  0  0  0  0  0  0  0  0  0  0
    9.4936    7.2559   26.1751 C   0  0  0  0  0  0  0  0  0  0  0  0
    9.0287    8.3612   24.5651 C   0  0  2  0  0  0  0  0  0  0  0  0
    8.0404    8.9710   23.5567 C   0  0  2  0  0  0  0  0  0  0  0  0
    6.6742    8.5585   23.7384 C   0  0  2  0  0  0  0  0  0  0  0  0
    8.5895    7.4961   25.3843 C   0  0  0  0  0  0  0  0  0  0  0  0
    8.3789    9.7297   22.4827 C   0  0  0  0  0  0  0  0  0  0  0  0
    6.0930    8.4033   25.0054 O   0  0  0  0  0  0  0  0  0  0  0  0
    4.7603    8.2033   25.0096 C   0  0  0  0  0  0  0  0  0  0  0  0
    5.7433    8.1749   22.7318 C   0  0  1  0  0  0  0  0  0  0  0  0
    4.4520    7.9853   23.5036 C   0  0  0  0  0  0  0  0  0  0  0  0
    7.7521    9.6561   21.1255 C   0  0  1  0  0  0  0  0  0  0  0  0
    8.3292   10.4008   20.0748 O   0  0  0  0  0  0  0  0  0  0  0  0
    5.9153    8.1498   21.3466 C   0  0  0  0  0  0  0  0  0  0  0  0
    6.8173    8.8313   20.6399 C   0  0  0  0  0  0  0  0  0  0  0  0
    6.9987    8.8898   19.3460 O   0  0  0  0  0  0  0  0  0  0  0  0
    7.7276    9.5780   18.9360 C   0  0  0  0  0  0  0  0  0  0  0  0
  1  2  1  0
  1  3  1  0
  3  4  1  6
  3  5  1  0
  6  2  1  1
  6  7  1  0
  7  8  1  0
  5  9  1  0
  6  9  1  0
  7 10  1  6
  8 11  1  1
 11 12  1  0
  8 13  1  0
 12 14  1  0
 13 14  1  6
 15 10  1  6
 15 16  1  0
 13 17  1  0
 15 18  1  0
 17 18  1  0
 18 19  1  0
 16 20  1  0
 19 20  1  0
M  END
$$$$
95
     RDKit          3D

 20 22  0  0  0  0  0  0  0  0999 V2000
    9.8600    5.8987   27.5632 N   0  0  0  0  0  0  0  0  0  0  0  0
   10.1793    7.0015   26.9641 C   0  0  0  0  0  0  0  0  0  0  0  0
   11.3876    7.3927   26.9691 N   0  0  0  0  0  0  0  0  0  0  0  0
   11.7618    8.3522   26.0643 C   0  0  0  0  0  0  0  0  0  0  0  0
    9.2904    7.4357   25.9030 C   0  0  2  0  0  0  0  0  0  0  0  0
   11.0575    8.8250   25.0207 C   0  0  0  0  0  0  0  0  0  0  0  0
    9.8604    8.3840   25.1084 C   0  0  0  0  0  0  0  0  0  0  0  0
    8.8285    8.8778   23.9737 C   0  0  0  0  0  0  0  0  0  0  0  0
    9.0177    9.6479   22.8791 N   0  0  0  0  0  0  0  0  0  0  0  0
    7.7585    7.9790   24.1964 C   0  0  0  0  0  0  0  0  0  0  0  0
    7.9232    7.2531   25.5509 N   0  0  0  0  0  0  0  0  0  0  0  0
    6.6397    8.4288   23.4738 C   0  0  0  0  0  0  0  0  0  0  0  0
    7.9050    9.7623   22.1065 C   0  0  0  0  0  0  0  0  0  0  0  0
    7.9752   10.5401   20.9557 C   0  0  0  0  0  0  0  0  0  0  0  0
    8.2909   10.1236   19.6987 O   0  0  0  0  0  0  0  0  0  0  0  0
    6.7390    9.1164   22.4073 C   0  0  0  0  0  0  0  0  0  0  0  0
    5.2652    7.7651   23.9309 C   0  0  0  0  0  0  0  0  0  0  0  0
    7.8723   11.8366   21.0735 O   0  0  0  0  0  0  0  0  0  0  0  0
    4.3297    8.0842   23.5293 O   0  0  0  0  0  0  0  0  0  0  0  0
    5.3590    6.7208   24.8384 O   0  0  0  0  0  0  0  0  0  0  0  0
  1  2  1  0
  2  3  2  0
  3  4  1  0
  2  5  1  0
  4  6  2  0
  5  7  1  0
  6  7  1  0
  7  8  2  0
  8  9  1  0
  8 10  1  0
  5 11  1  1
 10 11  1  0
 10 12  2  0
  9 13  2  0
 13 14  1  0
 14 15  2  0
 12 16  1  0
 13 16  1  0
 12 17  1  0
 14 18  1  0
 17 19  2  0
 17 20  1  0
M  END
$$$$
96
     RDKit          3D

 20 21  0  0  0  0  0  0  0  0999 V2000
    9.6988    6.1577   27.5765 N   0  0  0  0  0  0  0  0  0  0  0  0
   10.5680    7.0855   27.1384 C   0  0  0  0  0  0  0  0  0  0  0  0
   10.2922    7.9397   26.1744 C   0  0  2  0  0  0  0  0  0  0  0  0
   11.7450    7.1645   27.7950 N   0  0  0  0  0  0  0  0  0  0  0  0
    9.0400    7.9747   25.4937 C   0  0  0  0  0  0  0  0  0  0  0  0
    8.9007    8.4889   24.4066 C   0  0  2  0  0  0  0  0  0  0  0  0
   10.0367    9.1873   23.8749 C   0  0  0  0  0  0  0  0  0  0  0  0
   11.3368    8.5354   25.4170 C   0  0  0  0  0  0  0  0  0  0  0  0
   11.1614    9.1016   24.4242 C   0  0  0  0  0  0  0  0  0  0  0  0
    7.5417    8.5839   23.7743 C   0  0  0  0  0  0  0  0  0  0  0  0
    7.3897    8.7799   22.4886 C   0  0  0  0  0  0  0  0  0  0  0  0
    6.3988    8.4985   24.6314 C   0  0  0  0  0  0  0  0  0  0  0  0
    6.0846    8.6679   21.8603 C   0  0  1  0  0  0  0  0  0  0  0  0
    5.9426    8.7060   20.4857 C   0  0  0  0  0  0  0  0  0  0  0  0
    4.7078    8.6521   19.9653 O   0  0  0  0  0  0  0  0  0  0  0  0
    5.1399    8.2527   22.8285 C   0  0  0  0  0  0  0  0  0  0  0  0
    5.2028    8.2960   24.0426 C   0  0  0  0  0  0  0  0  0  0  0  0
    6.9402    8.4701   19.5752 N   0  0  0  0  0  0  0  0  0  0  0  0
    6.7227    8.7221   18.1814 C   0  0  0  0  0  0  0  0  0  0  0  0
    6.8146   10.1406   17.8268 C   0  0  0  0  0  0  0  0  0  0  0  0
  1  2  1  0
  3  2  1  6
  2  4  2  0
  3  5  1  0
  5  6  1  0
  6  7  1  0
  3  8  1  0
  7  9  1  0
  8  9  1  0
  6 10  1  1
 10 11  1  0
 10 12  1  0
 11 13  1  0
 13 14  1  6
 14 15  2  0
 13 16  1  0
 12 17  1  0
 16 17  1  0
 14 18  1  0
 18 19  1  0
 19 20  1  0
M  END
$$$$
97
     RDKit          3D

 20 22  0  0  0  0  0  0  0  0999 V2000
   11.2884    7.3184   26.9534 C   0  0  0  0  0  0  0  0  0  0  0  0
   11.1435    8.2501   26.0667 C   0  0  0  0  0  0  0  0  0  0  0  0
   10.1275    8.5501   25.1939 C   0  0  2  0  0  0  0  0  0  0  0  0
   10.0487    6.5954   27.1984 C   0  0  0  0  0  0  0  0  0  0  0  0
    8.9498    6.9942   26.3270 C   0  0  0  0  0  0  0  0  0  0  0  0
    9.0674    7.9443   25.3687 C   0  0  0  0  0  0  0  0  0  0  0  0
    7.9976    8.3110   24.4730 C   0  0  2  0  0  0  0  0  0  0  0  0
    6.6565    7.8694   24.5211 N   0  0  0  0  0  0  0  0  0  0  0  0
    8.1605    9.0556   23.3305 C   0  0  1  0  0  0  0  0  0  0  0  0
    9.3343    9.5556   22.7406 C   0  0  0  0  0  0  0  0  0  0  0  0
   10.4716    9.5317   24.0022 C   0  0  0  0  0  0  0  0  0  0  0  0
    6.8959    8.8896   22.6731 C   0  0  1  0  0  0  0  0  0  0  0  0
    6.0679    8.2712   23.4353 C   0  0  0  0  0  0  0  0  0  0  0  0
    6.6223    9.6754   21.4400 O   0  0  0  0  0  0  0  0  0  0  0  0
    4.6073    8.2569   23.0766 O   0  0  0  0  0  0  0  0  0  0  0  0
    7.2083    9.2156   20.2833 C   0  0  1  0  0  0  0  0  0  0  0  0
    7.3918    7.8855   20.1939 C   0  0  0  0  0  0  0  0  0  0  0  0
    6.4064    9.6168   19.0589 C   0  0  0  0  0  0  0  0  0  0  0  0
    6.9491    9.1508   17.8993 C   0  0  0  0  0  0  0  0  0  0  0  0
    8.4387    7.2192   20.9198 O   0  0  0  0  0  0  0  0  0  0  0  0
  1  2  1  0
  3  2  1  6
  1  4  1  0
  4  5  1  0
  3  6  1  0
  5  6  1  0
  6  7  1  0
  7  8  1  6
  7  9  1  0
  9 10  1  6
  3 11  1  0
 10 11  1  0
  9 12  1  0
  8 13  1  0
 12 13  1  0
 12 14  1  1
 13 15  2  0
 14 16  1  0
 16 17  1  1
 16 18  1  0
 18 19  1  0
 17 20  1  0
M  END
$$$$
98
     RDKit          3D

 20 21  0  0  0  0  0  0  0  0999 V2000
   10.7154    9.0116   24.3343 C   0  0  0  0  0  0  0  0  0  0  0  0
    9.5532    9.0303   23.6518 C   0  0  2  0  0  0  0  0  0  0  0  0
    8.5804    8.4009   24.1650 C   0  0  2  0  0  0  0  0  0  0  0  0
   10.6249    8.1995   25.5399 C   0  0  0  0  0  0  0  0  0  0  0  0
    7.1473    8.4837   23.5539 C   0  0  0  0  0  0  0  0  0  0  0  0
    8.6367    7.6761   25.4304 C   0  0  0  0  0  0  0  0  0  0  0  0
    6.9064    9.0868   22.4867 C   0  0  0  0  0  0  0  0  0  0  0  0
    9.7565    7.6350   26.0746 C   0  0  1  0  0  0  0  0  0  0  0  0
   10.0434    6.7524   27.4894 C   0  0  0  0  0  0  0  0  0  0  0  0
    5.9033    8.0325   24.2004 C   0  0  0  0  0  0  0  0  0  0  0  0
   11.3693    6.4962   27.6171 N   0  0  0  0  0  0  0  0  0  0  0  0
    7.9225    9.7164   21.5376 C   0  0  0  0  0  0  0  0  0  0  0  0
    7.7417   10.2856   20.4492 C   0  0  0  0  0  0  0  0  0  0  0  0
    9.2721    9.5307   22.3256 N   0  0  0  0  0  0  0  0  0  0  0  0
    8.2264   11.3621   20.1614 O   0  0  0  0  0  0  0  0  0  0  0  0
    7.1583    9.6910   19.3567 N   0  0  0  0  0  0  0  0  0  0  0  0
    7.0286   10.2166   18.1161 C   0  0  0  0  0  0  0  0  0  0  0  0
    4.8237    8.1141   23.7535 N   0  0  0  0  0  0  0  0  0  0  0  0
    5.9837    7.0899   25.2768 N   0  0  0  0  0  0  0  0  0  0  0  0
    7.0673    9.3968   17.0305 C   0  0  0  0  0  0  0  0  0  0  0  0
  2  1  1  6
  2  3  1  0
  1  4  1  0
  3  5  1  0
  3  6  1  1
  5  7  2  0
  4  8  1  0
  6  8  1  0
  8  9  1  6
  5 10  1  0
  9 11  1  0
  7 12  1  0
 12 13  1  0
  2 14  1  0
 12 14  2  0
 13 15  2  0
 13 16  1  0
 16 17  1  0
 10 18  2  0
 10 19  1  0
 17 20  1  0
M  END
$$$$
99
     RDKit          3D

 20 22  0  0  0  0  0  0  0  0999 V2000
   10.6189    6.7253   27.4098 C   0  0  0  0  0  0  0  0  0  0  0  0
   11.1757    7.7599   26.7022 C   0  0  0  0  0  0  0  0  0  0  0  0
    9.2905    6.4645   27.0024 N   0  0  0  0  0  0  0  0  0  0  0  0
    9.0465    7.2604   25.8992 C   0  0  2  0  0  0  0  0  0  0  0  0
    7.9613    7.3388   25.0666 N   0  0  0  0  0  0  0  0  0  0  0  0
    7.8471    8.1173   24.0029 C   0  0  1  0  0  0  0  0  0  0  0  0
   10.1415    8.1117   25.4220 C   0  0  1  0  0  0  0  0  0  0  0  0
    6.5994    8.1616   23.2256 C   0  0  2  0  0  0  0  0  0  0  0  0
    8.9056    9.0613   23.7389 C   0  0  0  0  0  0  0  0  0  0  0  0
    5.4356    8.1625   23.7710 C   0  0  0  0  0  0  0  0  0  0  0  0
   10.2055    8.9763   24.4669 C   0  0  0  0  0  0  0  0  0  0  0  0
    6.7434    8.0280   21.8129 C   0  0  2  0  0  0  0  0  0  0  0  0
    5.5299    7.9581   21.0540 C   0  0  0  0  0  0  0  0  0  0  0  0
    7.6821    7.8163   20.9563 O   0  0  0  0  0  0  0  0  0  0  0  0
    4.2684    8.0345   21.7229 C   0  0  0  0  0  0  0  0  0  0  0  0
    4.2669    8.1079   23.1156 C   0  0  2  0  0  0  0  0  0  0  0  0
    2.8335    8.2413   23.9937 C   0  0  0  0  0  0  0  0  0  0  0  0
    2.9078    7.4688   25.0737 O   0  0  0  0  0  0  0  0  0  0  0  0
    8.6598    8.5705   20.5592 C   0  0  0  0  0  0  0  0  0  0  0  0
    1.9456    8.8724   23.6549 O   0  0  0  0  0  0  0  0  0  0  0  0
  1  2  1  0
  1  3  1  0
  4  3  1  6
  4  5  1  0
  5  6  1  0
  7  2  1  1
  4  7  1  0
  6  8  1  0
  6  9  1  1
  8 10  1  1
  7 11  1  0
  9 11  1  0
  8 12  1  0
 12 13  1  0
 12 14  1  1
 13 15  1  0
 10 16  1  0
 15 16  1  0
 16 17  1  6
 17 18  1  0
 14 19  1  0
 17 20  2  0
M  END
$$$$
