0
     RDKit          3D

  9  9  0  0  0  0  0  0  0  0999 V2000
   39.7682   -4.4958   38.4940 O   0  0  0  0  0  0  0  0  0  0  0  0
   39.9713   -5.5072   37.7912 C   0  0  0  0  0  0  0  0  0  0  0  0
   40.5937   -6.6167   38.2577 N   0  0  0  0  0  0  0  0  0  0  0  0
   39.1831   -5.8285   36.6521 N   0  0  0  0  0  0  0  0  0  0  0  0
   40.5713   -7.7341   37.5174 C   0  0  2  0  0  0  0  0  0  0  0  0
   39.2886   -6.9971   36.0319 C   0  0  0  0  0  0  0  0  0  0  0  0
   39.9900   -7.9174   36.6018 C   0  0  0  0  0  0  0  0  0  0  0  0
   41.3451   -8.7682   38.4039 N   0  0  0  0  0  0  0  0  0  0  0  0
   38.5345   -7.0898   34.8479 O   0  0  0  0  0  0  0  0  0  0  0  0
  1  2  2  0
  2  3  1  0
  2  4  1  0
  3  5  1  0
  4  6  1  0
  5  7  1  0
  6  7  1  0
  5  8  1  1
  6  9  2  0
M  END
$$$$
1
     RDKit          3D

 10  9  0  0  0  0  0  0  0  0999 V2000
   39.7682   -4.4958   38.4940 O   0  0  0  0  0  0  0  0  0  0  0  0
   39.9713   -5.5072   37.7912 C   0  0  0  0  0  0  0  0  0  0  0  0
   39.5616   -5.6207   36.6192 O   0  0  0  0  0  0  0  0  0  0  0  0
   40.8827   -6.6121   38.2610 C   0  0  0  0  0  0  0  0  0  0  0  0
   40.7275   -7.0073   39.6188 N   0  0  0  0  0  0  0  0  0  0  0  0
   41.7665   -7.2373   37.5491 O   0  0  0  0  0  0  0  0  0  0  0  0
   39.6120   -6.7114   40.4251 C   0  0  0  0  0  0  0  0  0  0  0  0
   38.8577   -7.9057   40.6573 C   0  0  0  0  0  0  0  0  0  0  0  0
   38.7422   -8.8044   39.8039 O   0  0  0  0  0  0  0  0  0  0  0  0
   37.8813   -7.9032   41.6386 O   0  0  0  0  0  0  0  0  0  0  0  0
  1  2  2  0
  2  3  1  0
  2  4  1  0
  4  5  1  0
  4  6  2  0
  5  7  1  0
  7  8  1  0
  8  9  2  0
  8 10  1  0
M  END
$$$$
10
     RDKit          3D

 16 17  0  0  0  0  0  0  0  0999 V2000
   39.0195   -6.2743   45.8579 C   0  0  0  0  0  0  0  0  0  0  0  0
   38.5836   -6.0987   44.6776 C   0  0  0  0  0  0  0  0  0  0  0  0
   38.2313   -6.3106   46.9841 O   0  0  0  0  0  0  0  0  0  0  0  0
   40.3230   -7.0461   45.6936 C   0  0  0  0  0  0  0  0  0  0  0  0
   40.7580   -7.0612   44.5377 C   0  0  0  0  0  0  0  0  0  0  0  0
   39.1467   -6.2593   43.4609 C   0  0  0  0  0  0  0  0  0  0  0  0
   40.2929   -6.8275   43.4076 C   0  0  0  0  0  0  0  0  0  0  0  0
   41.0431   -7.1234   42.1906 C   0  0  0  0  0  0  0  0  0  0  0  0
   40.3788   -7.0244   40.9337 N   0  0  0  0  0  0  0  0  0  0  0  0
   42.2276   -7.7560   42.1069 N   0  0  0  0  0  0  0  0  0  0  0  0
   41.1171   -7.5340   39.8715 C   0  0  1  0  0  0  0  0  0  0  0  0
   40.9671   -7.5390   38.5290 C   0  0  0  0  0  0  0  0  0  0  0  0
   42.4436   -7.9906   40.7414 C   0  0  0  0  0  0  0  0  0  0  0  0
   40.2472   -6.5443   37.9753 C   0  0  0  0  0  0  0  0  0  0  0  0
   39.5758   -6.7390   36.8503 O   0  0  0  0  0  0  0  0  0  0  0  0
   39.8135   -5.4559   38.6858 N   0  0  0  0  0  0  0  0  0  0  0  0
  1  2  1  0
  1  3  1  0
  1  4  1  0
  4  5  1  0
  2  6  1  0
  5  7  1  0
  6  7  1  0
  7  8  1  0
  8  9  1  0
  8 10  2  0
  9 11  1  0
 11 12  1  6
 10 13  1  0
 11 13  1  0
 12 14  1  0
 14 15  2  0
 14 16  1  0
M  END
$$$$
100
     RDKit          3D

 22 23  0  0  0  0  0  0  0  0999 V2000
   39.7682   -4.4958   38.4940 O   0  0  0  0  0  0  0  0  0  0  0  0
   39.9713   -5.5072   37.7912 C   0  0  0  0  0  0  0  0  0  0  0  0
   40.5937   -6.6167   38.2577 N   0  0  0  0  0  0  0  0  0  0  0  0
   40.4122   -6.8820   39.6260 C   0  0  0  0  0  0  0  0  0  0  0  0
   41.4879   -7.5739   40.2301 C   0  0  2  0  0  0  0  0  0  0  0  0
   42.6855   -7.7622   39.6152 C   0  0  2  0  0  0  0  0  0  0  0  0
   39.4908   -5.4855   36.4274 N   0  0  0  0  0  0  0  0  0  0  0  0
   42.8198   -7.5682   38.1861 C   0  0  2  0  0  0  0  0  0  0  0  0
   43.9277   -7.9625   37.5070 O   0  0  0  0  0  0  0  0  0  0  0  0
   41.8245   -6.8325   37.5040 C   0  0  0  0  0  0  0  0  0  0  0  0
   43.8293   -8.5122   39.9721 O   0  0  0  0  0  0  0  0  0  0  0  0
   41.2381   -8.1934   41.5319 C   0  0  0  0  0  0  0  0  0  0  0  0
   44.8235   -7.9817   40.6067 C   0  0  2  0  0  0  0  0  0  0  0  0
   44.7140   -6.8555   41.4270 C   0  0  1  0  0  0  0  0  0  0  0  0
   46.0424   -8.0907   39.7443 C   0  0  0  0  0  0  0  0  0  0  0  0
   47.2352   -7.3366   40.2600 C   0  0  0  0  0  0  0  0  0  0  0  0
   40.7725   -7.4424   42.5031 O   0  0  0  0  0  0  0  0  0  0  0  0
   43.5868   -6.6421   42.2466 N   0  0  0  0  0  0  0  0  0  0  0  0
   46.9405   -6.1818   41.0484 C   0  0  0  0  0  0  0  0  0  0  0  0
   45.7489   -6.1514   41.7788 C   0  0  0  0  0  0  0  0  0  0  0  0
   43.9302   -6.1367   43.4842 C   0  0  0  0  0  0  0  0  0  0  0  0
   41.3391   -9.4110   41.7757 O   0  0  0  0  0  0  0  0  0  0  0  0
  1  2  2  0
  2  3  1  0
  3  4  1  0
  4  5  1  0
  5  6  1  0
  2  7  1  0
  6  8  1  0
  8  9  1  1
  3 10  1  0
  8 10  1  0
  6 11  1  6
  5 12  1  6
 13 11  1  6
 13 14  1  0
 13 15  1  0
 15 16  1  0
 12 17  1  0
 14 18  1  1
 16 19  1  0
 14 20  1  0
 19 20  1  0
 18 21  1  0
 12 22  2  0
M  END
$$$$
101
     RDKit          3D

 22 22  0  0  0  0  0  0  0  0999 V2000
   39.9370   -5.0356   38.7551 O   0  0  0  0  0  0  0  0  0  0  0  0
   40.1031   -6.2899   38.5352 P   0  0  2  0  0  0  0  0  0  0  0  0
   39.9031   -7.2688   39.5470 O   0  0  0  0  0  0  0  0  0  0  0  0
   41.5300   -6.8330   38.0183 O   0  0  0  0  0  0  0  0  0  0  0  0
   39.1728   -7.1172   37.4707 O   0  0  0  0  0  0  0  0  0  0  0  0
   42.3233   -7.9284   38.5322 C   0  0  0  0  0  0  0  0  0  0  0  0
   39.5368   -6.7801   41.0183 C   0  0  0  0  0  0  0  0  0  0  0  0
   39.9410   -7.6628   42.1363 C   0  0  0  0  0  0  0  0  0  0  0  0
   43.7765   -7.5188   38.5377 C   0  0  2  0  0  0  0  0  0  0  0  0
   44.1306   -6.7338   39.6986 N   0  0  0  0  0  0  0  0  0  0  0  0
   45.4802   -6.4485   39.9468 C   0  0  1  0  0  0  0  0  0  0  0  0
   39.8947   -7.0240   43.3383 O   0  0  0  0  0  0  0  0  0  0  0  0
   39.4061   -7.4754   44.4144 C   0  0  0  0  0  0  0  0  0  0  0  0
   39.1960   -6.5925   45.5488 C   0  0  0  0  0  0  0  0  0  0  0  0
   45.9397   -6.4348   41.0908 N   0  0  0  0  0  0  0  0  0  0  0  0
   46.4027   -6.5980   38.8163 C   0  0  0  0  0  0  0  0  0  0  0  0
   44.6398   -7.7652   37.5204 N   0  0  0  0  0  0  0  0  0  0  0  0
   45.2634   -6.3196   42.3264 C   0  0  0  0  0  0  0  0  0  0  0  0
   45.8959   -7.2420   37.6756 C   0  0  0  0  0  0  0  0  0  0  0  0
   40.3755   -5.8653   45.8138 O   0  0  0  0  0  0  0  0  0  0  0  0
   45.7859   -6.5365   43.5223 C   0  0  0  0  0  0  0  0  0  0  0  0
   43.9596   -5.9868   42.2811 O   0  0  0  0  0  0  0  0  0  0  0  0
  2  1  1  1
  2  3  1  0
  2  4  1  0
  2  5  2  0
  4  6  1  0
  3  7  1  0
  7  8  1  0
  9  6  1  6
  9 10  1  0
 10 11  1  0
  8 12  1  0
 12 13  1  0
 13 14  1  0
 11 15  1  1
 11 16  1  0
  9 17  1  0
 15 18  1  0
 16 19  1  0
 17 19  1  0
 14 20  1  0
 18 21  1  0
 18 22  2  0
M  END
$$$$
102
     RDKit          3D

 22 23  0  0  0  0  0  0  0  0999 V2000
   38.6889   -6.3536   45.8793 C   0  0  0  0  0  0  0  0  0  0  0  0
   38.4999   -6.1582   44.6526 C   0  0  0  0  0  0  0  0  0  0  0  0
   39.9152   -6.6374   46.1853 C   0  0  0  0  0  0  0  0  0  0  0  0
   40.3070   -6.7836   47.6995 C   0  0  0  0  0  0  0  0  0  0  0  0
   40.9821   -6.8850   45.3761 C   0  0  0  0  0  0  0  0  0  0  0  0
   39.4926   -6.4294   43.6020 C   0  0  0  0  0  0  0  0  0  0  0  0
   39.4314   -6.8424   48.5588 O   0  0  0  0  0  0  0  0  0  0  0  0
   41.5906   -6.5509   48.0814 N   0  0  0  0  0  0  0  0  0  0  0  0
   40.6944   -6.8190   44.0311 C   0  0  1  0  0  0  0  0  0  0  0  0
   41.7407   -7.0757   43.0514 C   0  0  2  0  0  0  0  0  0  0  0  0
   41.9727   -6.4960   49.3787 C   0  0  0  0  0  0  0  0  0  0  0  0
   41.3848   -7.4070   41.7339 N   0  0  0  0  0  0  0  0  0  0  0  0
   42.2043   -8.2102   40.9139 C   0  0  0  0  0  0  0  0  0  0  0  0
   43.0319   -7.3598   43.3250 O   0  0  0  0  0  0  0  0  0  0  0  0
   40.1480   -7.1559   40.9903 C   0  0  0  0  0  0  0  0  0  0  0  0
   39.2034   -6.5414   41.4954 O   0  0  0  0  0  0  0  0  0  0  0  0
   41.9059   -8.4801   39.6249 C   0  0  0  0  0  0  0  0  0  0  0  0
   44.0363   -6.4265   43.2928 C   0  0  0  0  0  0  0  0  0  0  0  0
   40.6407   -8.1712   39.1319 C   0  0  0  0  0  0  0  0  0  0  0  0
   40.0240   -7.4879   39.7412 N   0  0  0  0  0  0  0  0  0  0  0  0
   45.1511   -6.7938   44.1021 C   0  0  0  0  0  0  0  0  0  0  0  0
   40.2589   -8.7626   37.8307 O   0  0  0  0  0  0  0  0  0  0  0  0
  1  2  1  0
  1  3  1  0
  3  4  1  0
  3  5  1  0
  2  6  1  0
  4  7  2  0
  4  8  1  0
  9  5  1  1
  6  9  1  0
  9 10  1  0
  8 11  1  0
 10 12  1  0
 12 13  1  0
 10 14  1  1
 12 15  1  0
 15 16  2  0
 13 17  1  0
 14 18  1  0
 17 19  1  0
 15 20  1  0
 19 20  1  0
 18 21  1  0
 19 22  2  0
M  END
$$$$
103
     RDKit          3D

 22 23  0  0  0  0  0  0  0  0999 V2000
   38.6889   -6.3536   45.8793 C   0  0  0  0  0  0  0  0  0  0  0  0
   38.4999   -6.1582   44.6526 C   0  0  0  0  0  0  0  0  0  0  0  0
   39.4441   -6.3099   43.6539 C   0  0  1  0  0  0  0  0  0  0  0  0
   39.1355   -6.1291   42.2755 O   0  0  0  0  0  0  0  0  0  0  0  0
   40.7594   -6.5660   44.0457 C   0  0  0  0  0  0  0  0  0  0  0  0
   39.2671   -7.2522   41.3523 C   0  0  0  0  0  0  0  0  0  0  0  0
   40.9304   -6.8654   45.3447 C   0  0  2  0  0  0  0  0  0  0  0  0
   40.0229   -6.7864   46.2097 C   0  0  0  0  0  0  0  0  0  0  0  0
   42.3629   -7.1327   45.8512 O   0  0  0  0  0  0  0  0  0  0  0  0
   38.7706   -8.3083   41.5959 O   0  0  0  0  0  0  0  0  0  0  0  0
   42.9388   -8.2586   45.6637 C   0  0  0  0  0  0  0  0  0  0  0  0
   39.9570   -6.8525   40.1456 C   0  0  2  0  0  0  0  0  0  0  0  0
   43.7045   -8.1653   44.4087 C   0  0  1  0  0  0  0  0  0  0  0  0
   44.8107   -7.2329   44.6042 C   0  0  0  0  0  0  0  0  0  0  0  0
   44.3671   -9.3968   44.0363 O   0  0  0  0  0  0  0  0  0  0  0  0
   45.1982   -6.5280   43.4761 C   0  0  0  0  0  0  0  0  0  0  0  0
   39.4129   -6.0819   39.1745 N   0  0  0  0  0  0  0  0  0  0  0  0
   40.7443   -7.8911   39.4201 C   0  0  0  0  0  0  0  0  0  0  0  0
   39.8674   -6.3047   37.9326 C   0  0  0  0  0  0  0  0  0  0  0  0
   45.4765   -6.8587   45.7452 O   0  0  0  0  0  0  0  0  0  0  0  0
   44.2048   -5.9896   42.5599 C   0  0  0  0  0  0  0  0  0  0  0  0
   40.7279   -7.4776   38.0616 C   0  0  0  0  0  0  0  0  0  0  0  0
  1  2  1  0
  2  3  1  0
  3  4  1  6
  3  5  1  0
  4  6  1  0
  5  7  1  0
  1  8  1  0
  7  8  1  0
  7  9  1  1
  6 10  2  0
  9 11  1  0
 12  6  1  6
 11 13  1  0
 13 14  1  0
 13 15  1  1
 14 16  1  0
 12 17  1  0
 12 18  1  0
 17 19  1  0
 14 20  2  0
 16 21  1  0
 18 22  1  0
 19 22  1  0
M  END
$$$$
104
     RDKit          3D

 22 24  0  0  0  0  0  0  0  0999 V2000
   39.0195   -6.2743   45.8579 C   0  0  1  0  0  0  0  0  0  0  0  0
   38.5836   -6.0987   44.6776 C   0  0  0  0  0  0  0  0  0  0  0  0
   39.3190   -6.2929   43.5245 C   0  0  0  0  0  0  0  0  0  0  0  0
   38.2753   -6.0302   47.0971 F   0  0  0  0  0  0  0  0  0  0  0  0
   40.2607   -6.8808   45.9656 C   0  0  2  0  0  0  0  0  0  0  0  0
   40.8874   -7.0343   47.3823 N   0  0  0  0  0  0  0  0  0  0  0  0
   40.5697   -6.9002   43.7061 C   0  0  2  0  0  0  0  0  0  0  0  0
   41.1717   -7.0316   44.9644 C   0  0  2  0  0  0  0  0  0  0  0  0
   41.4880   -7.2143   42.3900 C   0  0  1  0  0  0  0  0  0  0  0  0
   42.7504   -7.4576   42.5732 N   0  0  0  0  0  0  0  0  0  0  0  0
   41.0331   -8.0774   41.3673 C   0  0  0  0  0  0  0  0  0  0  0  0
   43.5776   -7.0109   43.6527 C   0  0  0  0  0  0  0  0  0  0  0  0
   42.5885   -7.5340   45.1360 C   0  0  0  0  0  0  0  0  0  0  0  0
   44.7210   -6.7528   43.9732 O   0  0  0  0  0  0  0  0  0  0  0  0
   40.9826   -9.2919   41.4573 O   0  0  0  0  0  0  0  0  0  0  0  0
   41.0235   -7.5111   40.0412 N   0  0  0  0  0  0  0  0  0  0  0  0
   40.7536   -8.2870   38.8096 C   0  0  0  0  0  0  0  0  0  0  0  0
   41.8432   -8.5239   38.0752 C   0  0  0  0  0  0  0  0  0  0  0  0
   39.4153   -8.4979   38.4182 C   0  0  0  0  0  0  0  0  0  0  0  0
   39.2578   -9.2029   37.2347 C   0  0  0  0  0  0  0  0  0  0  0  0
   41.5947   -9.2729   36.7997 C   0  0  0  0  0  0  0  0  0  0  0  0
   40.3672   -9.4757   36.4482 C   0  0  0  0  0  0  0  0  0  0  0  0
  1  2  1  0
  2  3  1  0
  1  4  1  1
  1  5  1  0
  5  6  1  1
  7  3  1  6
  5  8  1  0
  7  8  1  0
  7  9  1  0
  9 10  1  0
  9 11  1  1
 10 12  1  0
  8 13  1  6
 12 13  1  0
 12 14  2  0
 11 15  2  0
 11 16  1  0
 16 17  1  0
 17 18  1  0
 17 19  1  0
 19 20  1  0
 18 21  1  0
 20 22  1  0
 21 22  1  0
M  END
$$$$
105
     RDKit          3D

 22 24  0  0  0  0  0  0  0  0999 V2000
   39.7682   -4.4958   38.4940 O   0  0  0  0  0  0  0  0  0  0  0  0
   39.9713   -5.5072   37.7912 C   0  0  0  0  0  0  0  0  0  0  0  0
   40.5937   -6.6167   38.2577 N   0  0  0  0  0  0  0  0  0  0  0  0
   40.4122   -6.8820   39.6260 C   0  0  0  0  0  0  0  0  0  0  0  0
   41.4879   -7.5739   40.2301 C   0  0  1  0  0  0  0  0  0  0  0  0
   42.6855   -7.7622   39.6152 C   0  0  0  0  0  0  0  0  0  0  0  0
   39.4908   -5.4855   36.4274 N   0  0  0  0  0  0  0  0  0  0  0  0
   41.5102   -7.6573   41.7170 N   0  0  0  0  0  0  0  0  0  0  0  0
   43.7526   -8.2793   40.3422 N   0  0  0  0  0  0  0  0  0  0  0  0
   39.5186   -6.6040   40.3886 O   0  0  0  0  0  0  0  0  0  0  0  0
   42.8664   -7.9973   38.1933 O   0  0  0  0  0  0  0  0  0  0  0  0
   43.7460   -8.5016   41.6936 C   0  0  2  0  0  0  0  0  0  0  0  0
   40.3644   -7.4701   42.4374 C   0  0  0  0  0  0  0  0  0  0  0  0
   42.6262   -8.1223   42.3844 C   0  0  2  0  0  0  0  0  0  0  0  0
   45.0696   -8.5998   39.5318 C   0  0  0  0  0  0  0  0  0  0  0  0
   42.6192   -8.3427   43.7888 C   0  0  0  0  0  0  0  0  0  0  0  0
   45.0014   -8.8821   42.2504 C   0  0  1  0  0  0  0  0  0  0  0  0
   43.8447   -8.7011   44.4697 C   0  0  0  0  0  0  0  0  0  0  0  0
   46.1301   -9.1980   41.4363 C   0  0  2  0  0  0  0  0  0  0  0  0
   47.2050   -9.7302   42.1499 O   0  0  0  0  0  0  0  0  0  0  0  0
   44.9905   -8.8432   43.6257 C   0  0  0  0  0  0  0  0  0  0  0  0
   46.1741   -8.9539   40.2077 C   0  0  0  0  0  0  0  0  0  0  0  0
  1  2  2  0
  2  3  1  0
  3  4  1  0
  5  4  1  1
  5  6  1  0
  2  7  1  0
  5  8  1  0
  6  9  1  0
  4 10  2  0
  6 11  2  0
 12  9  1  6
  8 13  1  0
  8 14  1  0
 12 14  1  0
  9 15  1  0
 14 16  1  6
 12 17  1  0
 16 18  1  0
 17 19  1  0
 19 20  1  1
 17 21  1  1
 18 21  1  0
 15 22  1  0
 19 22  1  0
M  END
$$$$
106
     RDKit          3D

 22 24  0  0  0  0  0  0  0  0999 V2000
   38.6889   -6.3536   45.8793 C   0  0  0  0  0  0  0  0  0  0  0  0
   39.8810   -6.8633   46.1804 C   0  0  0  0  0  0  0  0  0  0  0  0
   38.5371   -6.2487   44.6191 C   0  0  0  0  0  0  0  0  0  0  0  0
   40.6538   -7.0528   45.2839 C   0  0  0  0  0  0  0  0  0  0  0  0
   40.5965   -6.8993   43.9698 C   0  0  1  0  0  0  0  0  0  0  0  0
   39.3351   -6.4480   43.6251 C   0  0  1  0  0  0  0  0  0  0  0  0
   39.0406   -6.3311   42.2145 O   0  0  0  0  0  0  0  0  0  0  0  0
   39.4266   -7.3287   41.2993 C   0  0  0  0  0  0  0  0  0  0  0  0
   42.2010   -7.6127   45.8595 C   0  0  0  0  0  0  0  0  0  0  0  0
   43.2150   -7.5100   44.9361 N   0  0  0  0  0  0  0  0  0  0  0  0
   44.5221   -7.4433   45.4559 C   0  0  0  0  0  0  0  0  0  0  0  0
   44.8042   -7.5348   46.6956 O   0  0  0  0  0  0  0  0  0  0  0  0
   38.7567   -8.3028   41.1523 O   0  0  0  0  0  0  0  0  0  0  0  0
   40.1953   -6.7337   40.1991 C   0  0  0  0  0  0  0  0  0  0  0  0
   39.5384   -5.8626   39.3169 O   0  0  0  0  0  0  0  0  0  0  0  0
   45.6126   -7.2324   44.4862 C   0  0  0  0  0  0  0  0  0  0  0  0
   45.3076   -6.4761   43.3243 C   0  0  0  0  0  0  0  0  0  0  0  0
   39.9680   -5.8678   37.9094 C   0  0  0  0  0  0  0  0  0  0  0  0
   43.9288   -6.7808   42.7956 N   0  0  0  0  0  0  0  0  0  0  0  0
   46.1971   -6.0489   42.5531 O   0  0  0  0  0  0  0  0  0  0  0  0
   42.8909   -6.9888   43.6446 C   0  0  1  0  0  0  0  0  0  0  0  0
   41.6801   -7.0095   43.0752 N   0  0  0  0  0  0  0  0  0  0  0  0
  1  2  1  0
  1  3  1  0
  2  4  1  0
  4  5  1  0
  3  6  1  0
  5  6  1  0
  6  7  1  6
  7  8  1  0
  4  9  1  0
  9 10  1  0
 10 11  1  0
 11 12  2  0
  8 13  2  0
  8 14  1  0
 14 15  1  0
 11 16  1  0
 16 17  1  0
 15 18  1  0
 17 19  1  0
 17 20  2  0
 10 21  1  0
 21 19  1  6
  5 22  1  1
 21 22  1  0
M  END
$$$$
107
     RDKit          3D

 22 24  0  0  0  0  0  0  0  0999 V2000
   38.6889   -6.3536   45.8793 C   0  0  0  0  0  0  0  0  0  0  0  0
   38.4999   -6.1582   44.6526 C   0  0  2  0  0  0  0  0  0  0  0  0
   40.0305   -6.5017   46.3332 C   0  0  1  0  0  0  0  0  0  0  0  0
   40.2685   -6.6031   47.8138 C   0  0  0  0  0  0  0  0  0  0  0  0
   37.1651   -5.9537   44.0291 C   0  0  0  0  0  0  0  0  0  0  0  0
   41.5687   -6.5163   48.3701 C   0  0  0  0  0  0  0  0  0  0  0  0
   42.6486   -6.6641   47.5352 C   0  0  2  0  0  0  0  0  0  0  0  0
   39.5632   -6.1801   43.6536 C   0  0  0  0  0  0  0  0  0  0  0  0
   42.5195   -6.9297   46.1362 C   0  0  0  0  0  0  0  0  0  0  0  0
   43.5855   -7.2783   45.3109 N   0  0  0  0  0  0  0  0  0  0  0  0
   41.1798   -6.8225   45.4911 C   0  0  2  0  0  0  0  0  0  0  0  0
   40.9143   -6.8507   44.0991 C   0  0  0  0  0  0  0  0  0  0  0  0
   44.8892   -7.3396   45.8462 C   0  0  1  0  0  0  0  0  0  0  0  0
   44.9912   -7.4695   47.0868 C   0  0  0  0  0  0  0  0  0  0  0  0
   43.9914   -6.8420   48.0662 C   0  0  0  0  0  0  0  0  0  0  0  0
   46.0067   -7.4248   44.9084 C   0  0  0  0  0  0  0  0  0  0  0  0
   45.9623   -6.6653   43.7532 N   0  0  0  0  0  0  0  0  0  0  0  0
   44.9312   -5.8645   43.3649 C   0  0  0  0  0  0  0  0  0  0  0  0
   44.5557   -6.4209   42.0042 C   0  0  0  0  0  0  0  0  0  0  0  0
   47.0806   -8.1699   45.2496 O   0  0  0  0  0  0  0  0  0  0  0  0
   43.5028   -7.3010   41.9286 O   0  0  0  0  0  0  0  0  0  0  0  0
   45.2028   -6.0573   40.9258 O   0  0  0  0  0  0  0  0  0  0  0  0
  1  2  1  0
  3  1  1  6
  3  4  1  0
  2  5  1  6
  4  6  1  0
  7  6  1  1
  2  8  1  0
  7  9  1  0
  9 10  1  0
  3 11  1  0
  9 11  1  0
  8 12  1  0
 11 12  1  6
 10 13  1  0
 13 14  1  0
  7 15  1  0
 14 15  1  0
 13 16  1  6
 16 17  1  0
 17 18  1  0
 18 19  1  0
 16 20  2  0
 19 21  1  0
 19 22  2  0
M  END
$$$$
108
     RDKit          3D

 22 24  0  0  0  0  0  0  0  0999 V2000
   39.0195   -6.2743   45.8579 C   0  0  0  0  0  0  0  0  0  0  0  0
   38.5836   -6.0987   44.6776 C   0  0  0  0  0  0  0  0  0  0  0  0
   39.3190   -6.2929   43.5245 C   0  0  2  0  0  0  0  0  0  0  0  0
   40.2590   -6.8114   45.9323 C   0  0  0  0  0  0  0  0  0  0  0  0
   38.7628   -6.1563   42.1764 O   0  0  0  0  0  0  0  0  0  0  0  0
   39.5899   -6.8322   41.2761 C   0  0  0  0  0  0  0  0  0  0  0  0
   41.0870   -7.1398   44.9255 C   0  0  0  0  0  0  0  0  0  0  0  0
   40.5875   -6.9077   43.6968 C   0  0  2  0  0  0  0  0  0  0  0  0
   41.4988   -7.2788   42.5859 N   0  0  0  0  0  0  0  0  0  0  0  0
   42.6716   -7.6785   42.7530 C   0  0  0  0  0  0  0  0  0  0  0  0
   40.8334   -7.2441   41.3495 C   0  0  0  0  0  0  0  0  0  0  0  0
   43.7041   -7.0504   42.1209 N   0  0  0  0  0  0  0  0  0  0  0  0
   44.9690   -6.8990   42.4894 C   0  0  2  0  0  0  0  0  0  0  0  0
   43.0845   -8.5681   43.5769 O   0  0  0  0  0  0  0  0  0  0  0  0
   38.9559   -7.2944   40.0432 O   0  0  0  0  0  0  0  0  0  0  0  0
   45.3133   -5.7219   43.0451 C   0  0  0  0  0  0  0  0  0  0  0  0
   46.0553   -7.7299   42.1955 C   0  0  0  0  0  0  0  0  0  0  0  0
   45.8541   -8.9703   41.3461 C   0  0  0  0  0  0  0  0  0  0  0  0
   47.1885   -7.6112   42.7415 C   0  0  0  0  0  0  0  0  0  0  0  0
   48.3490   -8.4877   42.5285 C   0  0  0  0  0  0  0  0  0  0  0  0
   46.8899   -9.8272   41.0575 C   0  0  0  0  0  0  0  0  0  0  0  0
   48.1734   -9.5647   41.6558 C   0  0  0  0  0  0  0  0  0  0  0  0
  1  2  1  0
  3  2  1  1
  1  4  1  0
  3  5  1  0
  5  6  1  0
  4  7  1  0
  3  8  1  0
  8  7  1  1
  8  9  1  0
  9 10  1  0
  6 11  1  0
  9 11  1  0
 10 12  1  0
 12 13  1  0
 10 14  2  0
  6 15  2  0
 13 16  1  6
 13 17  1  0
 17 18  1  0
 17 19  1  0
 19 20  1  0
 18 21  1  0
 20 22  1  0
 21 22  1  0
M  END
$$$$
109
     RDKit          3D

 22 24  0  0  0  0  0  0  0  0999 V2000
   38.6889   -6.3536   45.8793 C   0  0  0  0  0  0  0  0  0  0  0  0
   38.4999   -6.1582   44.6526 C   0  0  0  0  0  0  0  0  0  0  0  0
   39.9152   -6.6374   46.1853 C   0  0  0  0  0  0  0  0  0  0  0  0
   40.3070   -6.7836   47.6995 C   0  0  0  0  0  0  0  0  0  0  0  0
   40.9821   -6.8850   45.3761 C   0  0  0  0  0  0  0  0  0  0  0  0
   39.4926   -6.4294   43.6020 C   0  0  1  0  0  0  0  0  0  0  0  0
   40.6006   -6.7946   44.0153 C   0  0  1  0  0  0  0  0  0  0  0  0
   41.6012   -6.9367   42.8974 C   0  0  1  0  0  0  0  0  0  0  0  0
   42.9465   -7.0509   43.1495 N   0  0  0  0  0  0  0  0  0  0  0  0
   43.8773   -7.4880   42.2924 C   0  0  2  0  0  0  0  0  0  0  0  0
   41.1034   -7.5717   41.7265 N   0  0  0  0  0  0  0  0  0  0  0  0
   45.2612   -7.2784   42.5631 C   0  0  1  0  0  0  0  0  0  0  0  0
   45.9079   -6.1516   42.1573 O   0  0  0  0  0  0  0  0  0  0  0  0
   43.5304   -7.9097   41.0050 C   0  0  1  0  0  0  0  0  0  0  0  0
   45.5808   -7.4425   44.0075 C   0  0  0  0  0  0  0  0  0  0  0  0
   44.4462   -8.4210   40.0844 O   0  0  0  0  0  0  0  0  0  0  0  0
   39.9132   -7.5937   41.3536 C   0  0  0  0  0  0  0  0  0  0  0  0
   42.1374   -7.9772   40.7762 C   0  0  0  0  0  0  0  0  0  0  0  0
   38.9859   -6.7342   42.3006 N   0  0  0  0  0  0  0  0  0  0  0  0
   41.6701   -8.5649   39.5641 O   0  0  0  0  0  0  0  0  0  0  0  0
   44.7818   -6.8409   44.8692 O   0  0  0  0  0  0  0  0  0  0  0  0
   47.0077   -7.0110   44.3358 O   0  0  0  0  0  0  0  0  0  0  0  0
  1  2  1  0
  1  3  1  0
  3  4  1  0
  3  5  1  0
  6  2  1  1
  7  5  1  1
  6  7  1  0
  7  8  1  0
  8  9  1  1
 10  9  1  6
  8 11  1  0
 10 12  1  0
 12 13  1  1
 10 14  1  0
 12 15  1  0
 14 16  1  1
 11 17  1  0
 11 18  1  0
 14 18  1  0
  6 19  1  0
 17 19  1  0
 18 20  2  0
 15 21  1  0
 15 22  1  0
M  END
$$$$
11
     RDKit          3D

 16 17  0  0  0  0  0  0  0  0999 V2000
   39.0195   -6.2743   45.8579 C   0  0  0  0  0  0  0  0  0  0  0  0
   38.5836   -6.0987   44.6776 C   0  0  0  0  0  0  0  0  0  0  0  0
   38.2313   -6.3106   46.9841 O   0  0  0  0  0  0  0  0  0  0  0  0
   40.3230   -7.0461   45.6936 C   0  0  0  0  0  0  0  0  0  0  0  0
   40.7580   -7.0612   44.5377 C   0  0  0  0  0  0  0  0  0  0  0  0
   39.1467   -6.2593   43.4609 C   0  0  0  0  0  0  0  0  0  0  0  0
   40.2929   -6.8275   43.4076 C   0  0  0  0  0  0  0  0  0  0  0  0
   41.0431   -7.1234   42.1906 C   0  0  0  0  0  0  0  0  0  0  0  0
   40.3788   -7.0244   40.9337 N   0  0  0  0  0  0  0  0  0  0  0  0
   42.2276   -7.7560   42.1069 N   0  0  0  0  0  0  0  0  0  0  0  0
   41.1171   -7.5340   39.8715 C   0  0  1  0  0  0  0  0  0  0  0  0
   40.9671   -7.5390   38.5290 C   0  0  0  0  0  0  0  0  0  0  0  0
   42.4436   -7.9906   40.7414 C   0  0  0  0  0  0  0  0  0  0  0  0
   41.6870   -8.3069   37.8202 O   0  0  0  0  0  0  0  0  0  0  0  0
   40.0631   -6.6882   37.9935 N   0  0  0  0  0  0  0  0  0  0  0  0
   39.3798   -5.7737   38.5997 O   0  0  0  0  0  0  0  0  0  0  0  0
  1  2  1  0
  1  3  1  0
  1  4  1  0
  4  5  1  0
  2  6  1  0
  5  7  1  0
  6  7  1  0
  7  8  1  0
  8  9  1  0
  8 10  2  0
  9 11  1  0
 11 12  1  6
 10 13  1  0
 11 13  1  0
 12 14  2  0
 12 15  1  0
 15 16  1  0
M  END
$$$$
110
     RDKit          3D

 22 23  0  0  0  0  0  0  0  0999 V2000
   39.9370   -5.0356   38.7551 O   0  0  0  0  0  0  0  0  0  0  0  0
   40.1679   -5.7768   38.0002 C   0  0  0  0  0  0  0  0  0  0  0  0
   40.8883   -6.9816   38.2343 C   0  0  0  0  0  0  0  0  0  0  0  0
   41.2062   -7.1545   39.6456 N   0  0  0  0  0  0  0  0  0  0  0  0
   40.4109   -7.3242   40.7227 C   0  0  0  0  0  0  0  0  0  0  0  0
   40.9990   -7.3076   41.9682 C   0  0  2  0  0  0  0  0  0  0  0  0
   40.3645   -6.8414   43.0958 C   0  0  0  0  0  0  0  0  0  0  0  0
   42.3517   -7.5210   42.0279 N   0  0  0  0  0  0  0  0  0  0  0  0
   39.8285   -5.6186   36.7039 O   0  0  0  0  0  0  0  0  0  0  0  0
   42.9625   -7.5682   43.2647 C   0  0  0  0  0  0  0  0  0  0  0  0
   42.3208   -7.2114   44.4252 C   0  0  1  0  0  0  0  0  0  0  0  0
   39.2629   -7.8770   40.5855 O   0  0  0  0  0  0  0  0  0  0  0  0
   40.9496   -6.8723   44.2717 C   0  0  0  0  0  0  0  0  0  0  0  0
   43.0306   -7.3704   45.6765 C   0  0  0  0  0  0  0  0  0  0  0  0
   42.3234   -7.3606   46.8639 C   0  0  0  0  0  0  0  0  0  0  0  0
   42.9851   -7.5213   48.1712 C   0  0  0  0  0  0  0  0  0  0  0  0
   42.3510   -7.2425   49.2134 N   0  0  0  0  0  0  0  0  0  0  0  0
   42.7673   -7.5941   50.4914 C   0  0  0  0  0  0  0  0  0  0  0  0
   44.2680   -7.8882   48.0418 N   0  0  0  0  0  0  0  0  0  0  0  0
   44.3871   -7.6747   45.7639 C   0  0  0  0  0  0  0  0  0  0  0  0
   44.9212   -7.8013   46.8082 C   0  0  0  0  0  0  0  0  0  0  0  0
   41.2291   -6.4809   49.2494 C   0  0  0  0  0  0  0  0  0  0  0  0
  1  2  1  0
  2  3  1  0
  3  4  1  0
  4  5  1  0
  6  5  1  6
  6  7  1  0
  6  8  1  0
  2  9  2  0
  8 10  1  0
 10 11  1  0
  5 12  2  0
  7 13  1  0
 11 13  1  0
 11 14  1  1
 14 15  2  0
 15 16  1  0
 16 17  1  0
 17 18  1  0
 16 19  2  0
 14 20  1  0
 19 21  1  0
 20 21  1  0
 17 22  1  0
M  END
$$$$
12
     RDKit          3D

 16 18  0  0  0  0  0  0  0  0999 V2000
   39.0195   -6.2743   45.8579 C   0  0  0  0  0  0  0  0  0  0  0  0
   38.5836   -6.0987   44.6776 C   0  0  0  0  0  0  0  0  0  0  0  0
   39.3190   -6.2929   43.5245 C   0  0  2  0  0  0  0  0  0  0  0  0
   40.2590   -6.8114   45.9323 C   0  0  0  0  0  0  0  0  0  0  0  0
   38.7628   -6.1563   42.1764 O   0  0  0  0  0  0  0  0  0  0  0  0
   39.5899   -6.8322   41.2761 C   0  0  2  0  0  0  0  0  0  0  0  0
   41.0870   -7.1398   44.9255 C   0  0  0  0  0  0  0  0  0  0  0  0
   40.5875   -6.9077   43.6968 C   0  0  2  0  0  0  0  0  0  0  0  0
   41.3878   -7.2276   42.5501 N   0  0  0  0  0  0  0  0  0  0  0  0
   40.8495   -7.1908   41.3436 C   0  0  0  0  0  0  0  0  0  0  0  0
   38.9225   -7.0213   39.9553 O   0  0  0  0  0  0  0  0  0  0  0  0
   39.7816   -6.9092   38.8692 C   0  0  1  0  0  0  0  0  0  0  0  0
   39.1727   -6.5331   37.6633 C   0  0  0  0  0  0  0  0  0  0  0  0
   41.1025   -6.9858   39.0886 C   0  0  0  0  0  0  0  0  0  0  0  0
   39.5475   -5.6258   37.1856 O   0  0  0  0  0  0  0  0  0  0  0  0
   41.6824   -7.5226   40.2734 C   0  0  0  0  0  0  0  0  0  0  0  0
  1  2  1  0
  3  2  1  1
  1  4  1  0
  3  5  1  0
  6  5  1  6
  4  7  1  0
  3  8  1  0
  8  7  1  1
  8  9  1  0
  6 10  1  0
  9 10  1  0
  6 11  1  0
 11 12  1  0
 12 13  1  1
 12 14  1  0
 13 15  1  0
 10 16  1  0
 14 16  1  0
M  END
$$$$
13
     RDKit          3D

 16 17  0  0  0  0  0  0  0  0999 V2000
   39.7028   -4.5670   38.4672 O   0  0  0  0  0  0  0  0  0  0  0  0
   40.0270   -5.5643   37.8304 C   0  0  0  0  0  0  0  0  0  0  0  0
   39.7399   -5.7447   36.6337 O   0  0  0  0  0  0  0  0  0  0  0  0
   40.9023   -6.7000   38.3167 C   0  0  0  0  0  0  0  0  0  0  0  0
   42.0557   -6.9826   37.9138 N   0  0  0  0  0  0  0  0  0  0  0  0
   40.3316   -7.5907   39.3605 C   0  0  0  0  0  0  0  0  0  0  0  0
   42.9771   -7.7861   38.5233 C   0  0  1  0  0  0  0  0  0  0  0  0
   42.4572   -8.6146   39.5869 C   0  0  0  0  0  0  0  0  0  0  0  0
   41.1342   -8.4491   40.0185 C   0  0  0  0  0  0  0  0  0  0  0  0
   44.2658   -7.9859   38.1031 C   0  0  0  0  0  0  0  0  0  0  0  0
   44.5528   -8.6262   37.0637 O   0  0  0  0  0  0  0  0  0  0  0  0
   45.3417   -7.3952   38.7369 N   0  0  0  0  0  0  0  0  0  0  0  0
   46.7228   -7.4563   38.3491 C   0  0  0  0  0  0  0  0  0  0  0  0
   45.3391   -6.5617   40.0070 C   0  0  0  0  0  0  0  0  0  0  0  0
   46.5505   -6.4512   40.5019 C   0  0  0  0  0  0  0  0  0  0  0  0
   47.4955   -6.8583   39.4748 C   0  0  0  0  0  0  0  0  0  0  0  0
  1  2  1  0
  2  3  2  0
  2  4  1  0
  4  5  1  0
  4  6  1  0
  5  7  1  0
  7  8  1  0
  6  9  1  0
  8  9  1  0
  7 10  1  6
 10 11  2  0
 10 12  1  0
 12 13  1  0
 12 14  1  0
 14 15  1  0
 13 16  1  0
 15 16  1  0
M  END
$$$$
14
     RDKit          3D

 16 18  0  0  0  0  0  0  0  0999 V2000
   39.0195   -6.2743   45.8579 C   0  0  2  0  0  0  0  0  0  0  0  0
   40.1440   -6.8196   45.9549 C   0  0  0  0  0  0  0  0  0  0  0  0
   40.9150   -7.1632   44.8946 C   0  0  0  0  0  0  0  0  0  0  0  0
   38.1787   -5.9655   47.0141 O   0  0  0  0  0  0  0  0  0  0  0  0
   38.4101   -5.9578   44.5583 C   0  0  2  0  0  0  0  0  0  0  0  0
   37.1381   -5.3849   44.4126 N   0  0  0  0  0  0  0  0  0  0  0  0
   39.1798   -6.3645   43.4337 C   0  0  0  0  0  0  0  0  0  0  0  0
   42.2639   -7.7225   45.0851 N   0  0  0  0  0  0  0  0  0  0  0  0
   40.4912   -7.0394   43.6248 C   0  0  1  0  0  0  0  0  0  0  0  0
   43.1392   -7.6612   44.1074 C   0  0  2  0  0  0  0  0  0  0  0  0
   42.7394   -7.4707   42.7570 C   0  0  2  0  0  0  0  0  0  0  0  0
   41.3210   -7.1579   42.5004 N   0  0  0  0  0  0  0  0  0  0  0  0
   44.4735   -8.1134   44.3150 C   0  0  0  0  0  0  0  0  0  0  0  0
   43.4997   -7.6540   41.5557 C   0  0  0  0  0  0  0  0  0  0  0  0
   45.3932   -8.1719   43.1711 C   0  0  0  0  0  0  0  0  0  0  0  0
   44.8694   -8.0249   41.8802 C   0  0  0  0  0  0  0  0  0  0  0  0
  1  2  1  0
  2  3  1  0
  1  4  1  1
  1  5  1  0
  5  6  1  1
  5  7  1  0
  3  8  1  0
  3  9  1  0
  9  7  1  1
  8 10  1  0
 10 11  1  0
  9 12  1  0
 11 12  1  0
 10 13  1  6
 11 14  1  6
 13 15  1  0
 14 16  1  0
 15 16  1  0
M  END
$$$$
15
     RDKit          3D

 16 16  0  0  0  0  0  0  0  0999 V2000
   39.9370   -5.0356   38.7551 O   0  0  0  0  0  0  0  0  0  0  0  0
   40.1679   -5.7768   38.0002 C   0  0  0  0  0  0  0  0  0  0  0  0
   40.9030   -6.9573   38.2045 N   0  0  0  0  0  0  0  0  0  0  0  0
   39.6876   -5.7103   36.7153 O   0  0  0  0  0  0  0  0  0  0  0  0
   41.1725   -7.3484   39.4911 C   0  0  2  0  0  0  0  0  0  0  0  0
   42.5422   -7.8296   39.6618 C   0  0  0  0  0  0  0  0  0  0  0  0
   43.1882   -7.7610   40.9096 N   0  0  0  0  0  0  0  0  0  0  0  0
   40.2667   -7.7668   40.1113 O   0  0  0  0  0  0  0  0  0  0  0  0
   43.2579   -8.4189   38.6630 O   0  0  0  0  0  0  0  0  0  0  0  0
   44.5608   -8.1062   41.1985 C   0  0  1  0  0  0  0  0  0  0  0  0
   45.4579   -6.9331   40.8689 C   0  0  1  0  0  0  0  0  0  0  0  0
   44.9466   -9.0015   42.0862 C   0  0  0  0  0  0  0  0  0  0  0  0
   46.8347   -7.1167   41.2505 C   0  0  0  0  0  0  0  0  0  0  0  0
   46.0681   -9.1470   42.4809 C   0  0  0  0  0  0  0  0  0  0  0  0
   45.1148   -5.8992   39.9513 O   0  0  0  0  0  0  0  0  0  0  0  0
   47.1949   -8.1324   42.0959 C   0  0  0  0  0  0  0  0  0  0  0  0
  1  2  2  0
  2  3  1  0
  2  4  1  0
  3  5  1  0
  5  6  1  0
  6  7  1  0
  5  8  1  6
  6  9  2  0
 10  7  1  1
 10 11  1  0
 10 12  1  0
 11 13  1  0
 12 14  1  0
 11 15  1  6
 13 16  1  0
 14 16  1  0
M  END
$$$$
16
     RDKit          3D

 16 17  0  0  0  0  0  0  0  0999 V2000
   39.7682   -4.4958   38.4940 O   0  0  0  0  0  0  0  0  0  0  0  0
   39.9797   -5.7126   38.4574 C   0  0  0  0  0  0  0  0  0  0  0  0
   40.1615   -6.4260   39.6453 C   0  0  1  0  0  0  0  0  0  0  0  0
   39.1697   -6.5316   40.6613 O   0  0  0  0  0  0  0  0  0  0  0  0
   39.4726   -7.1423   41.8473 C   0  0  2  0  0  0  0  0  0  0  0  0
   39.4761   -6.5075   37.3796 O   0  0  0  0  0  0  0  0  0  0  0  0
   38.6737   -6.7113   42.8870 C   0  0  0  0  0  0  0  0  0  0  0  0
   40.6695   -7.8035   41.9977 C   0  0  0  0  0  0  0  0  0  0  0  0
   39.0143   -7.2199   44.2586 C   0  0  2  0  0  0  0  0  0  0  0  0
   40.9811   -8.3286   43.2984 C   0  0  0  0  0  0  0  0  0  0  0  0
   40.1424   -8.0286   44.4008 C   0  0  0  0  0  0  0  0  0  0  0  0
   38.1451   -6.9360   45.3857 C   0  0  0  0  0  0  0  0  0  0  0  0
   41.4774   -7.8707   40.9178 C   0  0  0  0  0  0  0  0  0  0  0  0
   41.2504   -7.2792   39.7384 C   0  0  0  0  0  0  0  0  0  0  0  0
   36.9179   -6.8451   45.2681 O   0  0  0  0  0  0  0  0  0  0  0  0
   38.7087   -6.7005   46.5692 N   0  0  0  0  0  0  0  0  0  0  0  0
  1  2  1  0
  3  2  1  6
  3  4  1  0
  4  5  1  0
  2  6  2  0
  5  7  1  1
  5  8  1  0
  7  9  1  0
  8 10  1  0
  9 11  1  0
 10 11  1  0
  9 12  1  6
  8 13  1  0
  3 14  1  0
 13 14  1  0
 12 15  2  0
 12 16  1  0
M  END
$$$$
17
     RDKit          3D

 16 18  0  0  0  0  0  0  0  0999 V2000
   39.0195   -6.2743   45.8579 C   0  0  0  0  0  0  0  0  0  0  0  0
   40.1440   -6.8196   45.9549 C   0  0  0  0  0  0  0  0  0  0  0  0
   38.5322   -6.2554   44.7421 C   0  0  1  0  0  0  0  0  0  0  0  0
   37.1546   -5.6422   44.4641 N   0  0  0  0  0  0  0  0  0  0  0  0
   39.2133   -6.6567   43.5301 C   0  0  2  0  0  0  0  0  0  0  0  0
   38.5733   -6.5690   42.2078 O   0  0  0  0  0  0  0  0  0  0  0  0
   40.4591   -7.2191   43.7075 C   0  0  0  0  0  0  0  0  0  0  0  0
   39.4097   -7.0161   41.2609 C   0  0  2  0  0  0  0  0  0  0  0  0
   40.9977   -7.2558   45.0184 C   0  0  0  0  0  0  0  0  0  0  0  0
   41.3491   -7.7833   42.6439 C   0  0  0  0  0  0  0  0  0  0  0  0
   42.4602   -8.3066   42.7742 O   0  0  0  0  0  0  0  0  0  0  0  0
   38.9164   -6.9311   39.8956 C   0  0  0  0  0  0  0  0  0  0  0  0
   40.7315   -7.7035   41.3212 C   0  0  0  0  0  0  0  0  0  0  0  0
   41.3632   -8.2416   40.2106 C   0  0  0  0  0  0  0  0  0  0  0  0
   40.8430   -8.0781   38.9171 C   0  0  0  0  0  0  0  0  0  0  0  0
   39.6527   -7.4506   38.7737 C   0  0  0  0  0  0  0  0  0  0  0  0
  1  2  1  0
  1  3  1  0
  3  4  1  6
  3  5  1  0
  5  6  1  1
  5  7  1  0
  6  8  1  0
  2  9  1  0
  7  9  1  0
  7 10  1  0
 10 11  2  0
  8 12  1  6
  8 13  1  0
 10 13  1  0
 13 14  1  0
 14 15  1  0
 12 16  1  0
 15 16  1  0
M  END
$$$$
18
     RDKit          3D

 16 17  0  0  0  0  0  0  0  0999 V2000
   39.7682   -4.4958   38.4940 O   0  0  0  0  0  0  0  0  0  0  0  0
   39.9797   -5.7126   38.4574 C   0  0  0  0  0  0  0  0  0  0  0  0
   40.1615   -6.4260   39.6453 C   0  0  0  0  0  0  0  0  0  0  0  0
   39.1697   -6.5316   40.6613 O   0  0  0  0  0  0  0  0  0  0  0  0
   39.4726   -7.1423   41.8473 C   0  0  1  0  0  0  0  0  0  0  0  0
   39.4761   -6.5075   37.3796 O   0  0  0  0  0  0  0  0  0  0  0  0
   38.6737   -6.7113   42.8870 C   0  0  2  0  0  0  0  0  0  0  0  0
   39.3291   -6.2343   44.0940 C   0  0  2  0  0  0  0  0  0  0  0  0
   40.3994   -8.0623   41.7363 C   0  0  0  0  0  0  0  0  0  0  0  0
   41.3635   -7.1101   39.9205 C   0  0  0  0  0  0  0  0  0  0  0  0
   41.5193   -7.9629   40.9267 C   0  0  0  0  0  0  0  0  0  0  0  0
   37.2882   -6.7497   42.9287 C   0  0  0  0  0  0  0  0  0  0  0  0
   40.7759   -6.2344   44.2442 C   0  0  0  0  0  0  0  0  0  0  0  0
   38.4853   -5.9420   45.2625 C   0  0  0  0  0  0  0  0  0  0  0  0
   37.1474   -6.0039   45.0843 C   0  0  0  0  0  0  0  0  0  0  0  0
   36.5763   -6.4524   43.9352 C   0  0  0  0  0  0  0  0  0  0  0  0
  1  2  1  0
  2  3  1  0
  3  4  1  0
  4  5  1  0
  2  6  2  0
  5  7  1  0
  7  8  1  0
  5  9  1  6
  3 10  1  0
  9 11  1  0
 10 11  1  0
  7 12  1  1
  8 13  1  1
  8 14  1  0
 14 15  1  0
 12 16  1  0
 15 16  1  0
M  END
$$$$
19
     RDKit          3D

 16 17  0  0  0  0  0  0  0  0999 V2000
   39.7682   -4.4958   38.4940 O   0  0  0  0  0  0  0  0  0  0  0  0
   39.9797   -5.7126   38.4574 C   0  0  0  0  0  0  0  0  0  0  0  0
   40.1615   -6.4260   39.6453 C   0  0  1  0  0  0  0  0  0  0  0  0
   39.1697   -6.5316   40.6613 O   0  0  0  0  0  0  0  0  0  0  0  0
   39.4726   -7.1423   41.8473 C   0  0  2  0  0  0  0  0  0  0  0  0
   39.4761   -6.5075   37.3796 O   0  0  0  0  0  0  0  0  0  0  0  0
   38.6737   -6.7113   42.8870 C   0  0  0  0  0  0  0  0  0  0  0  0
   40.6695   -7.8035   41.9977 C   0  0  0  0  0  0  0  0  0  0  0  0
   39.0143   -7.2199   44.2586 C   0  0  2  0  0  0  0  0  0  0  0  0
   40.9811   -8.3286   43.2984 C   0  0  0  0  0  0  0  0  0  0  0  0
   40.1424   -8.0286   44.4008 C   0  0  0  0  0  0  0  0  0  0  0  0
   38.1451   -6.9360   45.3857 C   0  0  0  0  0  0  0  0  0  0  0  0
   41.4774   -7.8707   40.9178 C   0  0  0  0  0  0  0  0  0  0  0  0
   41.1649   -7.4405   39.6678 C   0  0  0  0  0  0  0  0  0  0  0  0
   38.6916   -6.1917   46.3798 O   0  0  0  0  0  0  0  0  0  0  0  0
   36.8985   -6.4902   45.1384 O   0  0  0  0  0  0  0  0  0  0  0  0
  1  2  1  0
  3  2  1  6
  3  4  1  0
  4  5  1  0
  2  6  2  0
  5  7  1  1
  5  8  1  0
  7  9  1  0
  8 10  1  0
  9 11  1  0
 10 11  1  0
  9 12  1  6
  8 13  1  0
  3 14  1  0
 13 14  1  0
 12 15  1  0
 12 16  2  0
M  END
$$$$
2
     RDKit          3D

 10 10  0  0  0  0  0  0  0  0999 V2000
   39.7028   -4.5670   38.4672 O   0  0  0  0  0  0  0  0  0  0  0  0
   40.0270   -5.5643   37.8304 C   0  0  0  0  0  0  0  0  0  0  0  0
   39.7399   -5.7447   36.6337 O   0  0  0  0  0  0  0  0  0  0  0  0
   40.6532   -6.7073   38.5931 C   0  0  0  0  0  0  0  0  0  0  0  0
   41.8573   -7.1830   38.2352 C   0  0  0  0  0  0  0  0  0  0  0  0
   42.4943   -8.1823   39.0418 C   0  0  0  0  0  0  0  0  0  0  0  0
   40.0790   -7.3676   39.6919 C   0  0  2  0  0  0  0  0  0  0  0  0
   38.6718   -6.8294   40.1399 O   0  0  0  0  0  0  0  0  0  0  0  0
   40.7067   -8.0637   40.6877 C   0  0  0  0  0  0  0  0  0  0  0  0
   41.9889   -8.5020   40.1729 C   0  0  0  0  0  0  0  0  0  0  0  0
  1  2  1  0
  2  3  2  0
  2  4  1  0
  4  5  1  0
  5  6  1  0
  4  7  1  0
  7  8  1  1
  7  9  1  0
  6 10  1  0
  9 10  1  0
M  END
$$$$
20
     RDKit          3D

 16 18  0  0  0  0  0  0  0  0999 V2000
   39.0195   -6.2743   45.8579 C   0  0  0  0  0  0  0  0  0  0  0  0
   38.5836   -6.0987   44.6776 C   0  0  0  0  0  0  0  0  0  0  0  0
   39.3190   -6.2929   43.5245 C   0  0  2  0  0  0  0  0  0  0  0  0
   40.2590   -6.8114   45.9323 C   0  0  0  0  0  0  0  0  0  0  0  0
   38.7628   -6.1563   42.1764 O   0  0  0  0  0  0  0  0  0  0  0  0
   39.5899   -6.8322   41.2761 C   0  0  2  0  0  0  0  0  0  0  0  0
   41.0870   -7.1398   44.9255 C   0  0  0  0  0  0  0  0  0  0  0  0
   40.5875   -6.9077   43.6968 C   0  0  2  0  0  0  0  0  0  0  0  0
   41.3878   -7.2276   42.5501 N   0  0  0  0  0  0  0  0  0  0  0  0
   40.8495   -7.1908   41.3436 C   0  0  0  0  0  0  0  0  0  0  0  0
   38.9225   -7.0213   39.9553 O   0  0  0  0  0  0  0  0  0  0  0  0
   39.7816   -6.9092   38.8692 C   0  0  1  0  0  0  0  0  0  0  0  0
   39.1727   -6.5331   37.6633 C   0  0  0  0  0  0  0  0  0  0  0  0
   41.1025   -6.9858   39.0886 C   0  0  0  0  0  0  0  0  0  0  0  0
   41.6557   -7.5372   40.2651 C   0  0  0  0  0  0  0  0  0  0  0  0
   39.5263   -5.7764   36.9980 O   0  0  0  0  0  0  0  0  0  0  0  0
  1  2  1  0
  3  2  1  1
  1  4  1  0
  3  5  1  0
  6  5  1  6
  4  7  1  0
  3  8  1  0
  8  7  1  1
  8  9  1  0
  6 10  1  0
  9 10  1  0
  6 11  1  0
 11 12  1  0
 12 13  1  1
 12 14  1  0
 10 15  1  0
 14 15  1  0
 13 16  2  0
M  END
$$$$
21
     RDKit          3D

 16 18  0  0  0  0  0  0  0  0999 V2000
   39.0195   -6.2743   45.8579 C   0  0  0  0  0  0  0  0  0  0  0  0
   38.5836   -6.0987   44.6776 C   0  0  0  0  0  0  0  0  0  0  0  0
   39.3190   -6.2929   43.5245 C   0  0  2  0  0  0  0  0  0  0  0  0
   40.2590   -6.8114   45.9323 C   0  0  0  0  0  0  0  0  0  0  0  0
   38.7628   -6.1563   42.1764 O   0  0  0  0  0  0  0  0  0  0  0  0
   39.5899   -6.8322   41.2761 C   0  0  2  0  0  0  0  0  0  0  0  0
   41.0870   -7.1398   44.9255 C   0  0  0  0  0  0  0  0  0  0  0  0
   40.5875   -6.9077   43.6968 C   0  0  2  0  0  0  0  0  0  0  0  0
   41.3878   -7.2276   42.5501 N   0  0  0  0  0  0  0  0  0  0  0  0
   40.8495   -7.1908   41.3436 C   0  0  2  0  0  0  0  0  0  0  0  0
   38.9225   -7.0213   39.9553 O   0  0  0  0  0  0  0  0  0  0  0  0
   39.9331   -7.1305   38.9094 C   0  0  0  0  0  0  0  0  0  0  0  0
   39.4352   -7.0350   37.6051 C   0  0  0  0  0  0  0  0  0  0  0  0
   41.1543   -7.3115   39.4716 C   0  0  0  0  0  0  0  0  0  0  0  0
   39.3599   -8.1831   36.9510 O   0  0  0  0  0  0  0  0  0  0  0  0
   39.0927   -5.8373   37.1616 O   0  0  0  0  0  0  0  0  0  0  0  0
  1  2  1  0
  3  2  1  1
  1  4  1  0
  3  5  1  0
  6  5  1  6
  4  7  1  0
  3  8  1  0
  8  7  1  1
  8  9  1  0
  6 10  1  0
  9 10  1  0
  6 11  1  0
 11 12  1  0
 12 13  1  0
 10 14  1  6
 12 14  1  0
 13 15  1  0
 13 16  2  0
M  END
$$$$
22
     RDKit          3D

 16 17  0  0  0  0  0  0  0  0999 V2000
   39.0195   -6.2743   45.8579 C   0  0  0  0  0  0  0  0  0  0  0  0
   38.5836   -6.0987   44.6776 C   0  0  0  0  0  0  0  0  0  0  0  0
   39.3190   -6.2929   43.5245 C   0  0  0  0  0  0  0  0  0  0  0  0
   40.5596   -6.9225   43.6725 C   0  0  1  0  0  0  0  0  0  0  0  0
   41.4005   -7.1649   42.5063 C   0  0  0  0  0  0  0  0  0  0  0  0
   41.1452   -7.0629   44.9453 C   0  0  1  0  0  0  0  0  0  0  0  0
   40.3417   -6.7974   46.0729 C   0  0  0  0  0  0  0  0  0  0  0  0
   40.7781   -7.2866   41.2256 N   0  0  0  0  0  0  0  0  0  0  0  0
   42.5841   -7.9162   42.4833 N   0  0  0  0  0  0  0  0  0  0  0  0
   43.4646   -8.0707   43.5523 C   0  0  1  0  0  0  0  0  0  0  0  0
   42.5182   -7.6913   45.2115 S   0  0  0  0  0  0  0  0  0  0  0  0
   39.7619   -6.6192   40.7951 O   0  0  0  0  0  0  0  0  0  0  0  0
   44.7169   -8.4715   43.6203 C   0  0  0  0  0  0  0  0  0  0  0  0
   45.7199   -7.5367   43.7871 C   0  0  0  0  0  0  0  0  0  0  0  0
   39.7515   -6.4744   39.4160 C   0  0  0  0  0  0  0  0  0  0  0  0
   45.4398   -6.1719   43.9930 C   0  0  0  0  0  0  0  0  0  0  0  0
  1  2  1  0
  2  3  1  0
  4  3  1  6
  4  5  1  0
  4  6  1  0
  1  7  1  0
  6  7  1  1
  5  8  1  0
  5  9  2  0
  9 10  1  0
  6 11  1  0
 10 11  1  0
  8 12  1  0
 10 13  1  1
 13 14  1  0
 12 15  1  0
 14 16  1  0
M  END
$$$$
23
     RDKit          3D

 17 18  0  0  0  0  0  0  0  0999 V2000
   39.7028   -4.5670   38.4672 O   0  0  0  0  0  0  0  0  0  0  0  0
   40.0270   -5.5643   37.8304 C   0  0  0  0  0  0  0  0  0  0  0  0
   39.7399   -5.7447   36.6337 O   0  0  0  0  0  0  0  0  0  0  0  0
   40.4070   -6.6510   38.8236 C   0  0  2  0  0  0  0  0  0  0  0  0
   41.5480   -7.4015   38.4593 C   0  0  0  0  0  0  0  0  0  0  0  0
   39.7469   -6.9961   39.9537 C   0  0  2  0  0  0  0  0  0  0  0  0
   38.5575   -6.2784   40.3100 O   0  0  0  0  0  0  0  0  0  0  0  0
   40.3960   -7.7058   40.9863 C   0  0  2  0  0  0  0  0  0  0  0  0
   41.5459   -8.4474   40.6000 C   0  0  0  0  0  0  0  0  0  0  0  0
   42.1528   -8.2509   39.3657 C   0  0  0  0  0  0  0  0  0  0  0  0
   39.6405   -8.0211   42.3559 C   0  0  0  0  0  0  0  0  0  0  0  0
   40.2435   -7.2647   43.3950 C   0  0  0  0  0  0  0  0  0  0  0  0
   39.3998   -6.4886   44.1824 C   0  0  0  0  0  0  0  0  0  0  0  0
   41.0349   -8.1121   44.4198 C   0  0  0  0  0  0  0  0  0  0  0  0
   39.8315   -5.9992   45.4544 C   0  0  0  0  0  0  0  0  0  0  0  0
   40.5729   -6.9048   46.3068 C   0  0  0  0  0  0  0  0  0  0  0  0
   41.4251   -7.7397   45.6466 C   0  0  0  0  0  0  0  0  0  0  0  0
  1  2  1  0
  2  3  2  0
  4  2  1  6
  4  5  1  0
  4  6  1  0
  6  7  1  1
  6  8  1  0
  8  9  1  0
  5 10  1  0
  9 10  1  0
  8 11  1  6
 11 12  1  0
 12 13  1  0
 12 14  1  0
 13 15  1  0
 15 16  1  0
 14 17  1  0
 16 17  1  0
M  END
$$$$
24
     RDKit          3D

 17 17  0  0  0  0  0  0  0  0999 V2000
   39.0195   -6.2743   45.8579 C   0  0  1  0  0  0  0  0  0  0  0  0
   38.5836   -6.0987   44.6776 C   0  0  2  0  0  0  0  0  0  0  0  0
   37.2514   -5.6858   44.4391 O   0  0  0  0  0  0  0  0  0  0  0  0
   38.2475   -6.3062   47.0572 O   0  0  0  0  0  0  0  0  0  0  0  0
   38.9008   -7.2849   43.7077 C   0  0  2  0  0  0  0  0  0  0  0  0
   40.3178   -7.5763   43.7933 O   0  0  0  0  0  0  0  0  0  0  0  0
   38.5929   -7.0722   42.2623 O   0  0  0  0  0  0  0  0  0  0  0  0
   39.9320   -7.5599   46.0149 C   0  0  1  0  0  0  0  0  0  0  0  0
   40.9294   -7.6250   44.9924 C   0  0  1  0  0  0  0  0  0  0  0  0
   40.2891   -7.9135   47.3530 O   0  0  0  0  0  0  0  0  0  0  0  0
   39.5753   -7.3908   41.3312 C   0  0  0  0  0  0  0  0  0  0  0  0
   41.8756   -8.7491   45.0496 C   0  0  0  0  0  0  0  0  0  0  0  0
   39.7501   -6.4800   40.2797 C   0  0  0  0  0  0  0  0  0  0  0  0
   39.8279   -7.1207   38.9908 O   0  0  0  0  0  0  0  0  0  0  0  0
   40.3134   -6.4248   37.8012 C   0  0  0  0  0  0  0  0  0  0  0  0
   43.2386   -8.3538   45.2344 O   0  0  0  0  0  0  0  0  0  0  0  0
   40.1561   -5.0632   37.9848 C   0  0  0  0  0  0  0  0  0  0  0  0
  1  2  1  0
  2  3  1  1
  1  4  1  1
  2  5  1  0
  5  6  1  0
  5  7  1  6
  1  8  1  0
  6  9  1  0
  8  9  1  0
  8 10  1  1
  7 11  1  0
  9 12  1  6
 11 13  1  0
 13 14  1  0
 14 15  1  0
 12 16  1  0
 15 17  1  0
M  END
$$$$
25
     RDKit          3D

 17 18  0  0  0  0  0  0  0  0999 V2000
   39.0195   -6.2743   45.8579 C   0  0  0  0  0  0  0  0  0  0  0  0
   38.5836   -6.0987   44.6776 C   0  0  0  0  0  0  0  0  0  0  0  0
   39.3190   -6.2929   43.5245 C   0  0  0  0  0  0  0  0  0  0  0  0
   40.3574   -7.0299   43.7556 C   0  0  0  0  0  0  0  0  0  0  0  0
   40.2473   -6.9027   46.0510 C   0  0  0  0  0  0  0  0  0  0  0  0
   40.9473   -7.2215   45.0676 C   0  0  0  0  0  0  0  0  0  0  0  0
   41.2884   -7.4133   42.5977 C   0  0  0  0  0  0  0  0  0  0  0  0
   40.7309   -7.4352   41.3214 N   0  0  0  0  0  0  0  0  0  0  0  0
   40.6545   -8.5283   40.5886 C   0  0  0  0  0  0  0  0  0  0  0  0
   40.1239   -8.3091   39.2380 C   0  0  0  0  0  0  0  0  0  0  0  0
   39.9721   -9.3727   38.3520 O   0  0  0  0  0  0  0  0  0  0  0  0
   42.4871   -7.9793   42.6860 O   0  0  0  0  0  0  0  0  0  0  0  0
   39.7348   -7.1117   38.7903 N   0  0  0  0  0  0  0  0  0  0  0  0
   39.1927   -6.8993   37.4966 C   0  0  0  0  0  0  0  0  0  0  0  0
   39.2869   -5.5116   37.0940 C   0  0  0  0  0  0  0  0  0  0  0  0
   39.9011   -5.9165   39.5133 N   0  0  0  0  0  0  0  0  0  0  0  0
   39.7141   -4.9150   38.5016 C   0  0  0  0  0  0  0  0  0  0  0  0
  1  2  1  0
  2  3  1  0
  3  4  1  0
  1  5  1  0
  4  6  1  0
  5  6  1  0
  4  7  1  0
  7  8  1  0
  8  9  1  0
  9 10  1  0
 10 11  2  0
  7 12  2  0
 10 13  1  0
 13 14  1  0
 14 15  1  0
 13 16  1  0
 15 17  1  0
 16 17  1  0
M  END
$$$$
26
     RDKit          3D

 17 18  0  0  0  0  0  0  0  0999 V2000
   39.7682   -4.4958   38.4940 O   0  0  0  0  0  0  0  0  0  0  0  0
   39.9713   -5.5072   37.7912 C   0  0  0  0  0  0  0  0  0  0  0  0
   40.5937   -6.6167   38.2577 N   0  0  0  0  0  0  0  0  0  0  0  0
   40.4122   -6.8820   39.6260 C   0  0  0  0  0  0  0  0  0  0  0  0
   41.4879   -7.5739   40.2301 C   0  0  1  0  0  0  0  0  0  0  0  0
   42.6855   -7.7622   39.6152 C   0  0  0  0  0  0  0  0  0  0  0  0
   39.4908   -5.4855   36.4274 N   0  0  0  0  0  0  0  0  0  0  0  0
   41.5102   -7.6573   41.7170 N   0  0  0  0  0  0  0  0  0  0  0  0
   43.7526   -8.2793   40.3422 N   0  0  0  0  0  0  0  0  0  0  0  0
   39.5186   -6.6040   40.3886 O   0  0  0  0  0  0  0  0  0  0  0  0
   42.8664   -7.9973   38.1933 O   0  0  0  0  0  0  0  0  0  0  0  0
   43.7460   -8.5016   41.6936 C   0  0  2  0  0  0  0  0  0  0  0  0
   42.3631   -8.1416   42.2896 C   0  0  1  0  0  0  0  0  0  0  0  0
   42.5807   -8.2021   43.7577 C   0  0  0  0  0  0  0  0  0  0  0  0
   44.8114   -8.6976   42.5318 C   0  0  0  0  0  0  0  0  0  0  0  0
   43.5964   -8.5991   44.5041 C   0  0  0  0  0  0  0  0  0  0  0  0
   44.7559   -8.7568   43.7869 C   0  0  0  0  0  0  0  0  0  0  0  0
  1  2  2  0
  2  3  1  0
  3  4  1  0
  5  4  1  1
  5  6  1  0
  2  7  1  0
  5  8  1  0
  6  9  1  0
  4 10  2  0
  6 11  2  0
  9 12  1  0
  8 13  1  0
 12 13  1  0
 13 14  1  1
 12 15  1  1
 14 16  1  0
 15 17  1  0
 16 17  1  0
M  END
$$$$
27
     RDKit          3D

 17 19  0  0  0  0  0  0  0  0999 V2000
   38.6889   -6.3536   45.8793 C   0  0  0  0  0  0  0  0  0  0  0  0
   38.4999   -6.1582   44.6526 C   0  0  0  0  0  0  0  0  0  0  0  0
   39.4441   -6.3099   43.6539 C   0  0  0  0  0  0  0  0  0  0  0  0
   40.6463   -6.9277   44.0075 C   0  0  0  0  0  0  0  0  0  0  0  0
   39.8783   -6.9405   46.2009 C   0  0  0  0  0  0  0  0  0  0  0  0
   40.8882   -7.1962   45.3648 C   0  0  0  0  0  0  0  0  0  0  0  0
   41.7789   -7.2269   42.9660 C   0  0  1  0  0  0  0  0  0  0  0  0
   43.0285   -6.9920   43.2707 N   0  0  0  0  0  0  0  0  0  0  0  0
   44.0320   -7.3045   42.4019 C   0  0  1  0  0  0  0  0  0  0  0  0
   41.3646   -7.8039   41.7919 O   0  0  0  0  0  0  0  0  0  0  0  0
   43.6170   -7.7877   41.1642 C   0  0  0  0  0  0  0  0  0  0  0  0
   42.2907   -8.0838   40.8581 C   0  0  0  0  0  0  0  0  0  0  0  0
   44.5570   -8.0192   40.0363 C   0  0  0  0  0  0  0  0  0  0  0  0
   45.3375   -6.9418   42.6866 C   0  0  0  0  0  0  0  0  0  0  0  0
   46.3308   -7.2462   41.6250 C   0  0  0  0  0  0  0  0  0  0  0  0
   45.8664   -7.6617   40.3738 C   0  0  0  0  0  0  0  0  0  0  0  0
   41.8715   -8.6559   39.6940 O   0  0  0  0  0  0  0  0  0  0  0  0
  1  2  1  0
  2  3  1  0
  3  4  1  0
  1  5  1  0
  4  6  1  0
  5  6  1  0
  7  4  1  1
  7  8  1  0
  8  9  1  0
  7 10  1  0
  9 11  1  0
 10 12  1  0
 11 12  1  0
 11 13  1  0
  9 14  1  6
 14 15  1  0
 13 16  1  0
 15 16  1  0
 12 17  2  0
M  END
$$$$
28
     RDKit          3D

 17 19  0  0  0  0  0  0  0  0999 V2000
   39.0195   -6.2743   45.8579 C   0  0  0  0  0  0  0  0  0  0  0  0
   40.1440   -6.8196   45.9549 C   0  0  0  0  0  0  0  0  0  0  0  0
   38.5322   -6.2554   44.7421 C   0  0  1  0  0  0  0  0  0  0  0  0
   37.1546   -5.6422   44.4641 N   0  0  0  0  0  0  0  0  0  0  0  0
   39.2133   -6.6567   43.5301 C   0  0  2  0  0  0  0  0  0  0  0  0
   38.5733   -6.5690   42.2078 O   0  0  0  0  0  0  0  0  0  0  0  0
   40.4591   -7.2191   43.7075 C   0  0  0  0  0  0  0  0  0  0  0  0
   39.4097   -7.0161   41.2609 C   0  0  2  0  0  0  0  0  0  0  0  0
   40.9977   -7.2558   45.0184 C   0  0  0  0  0  0  0  0  0  0  0  0
   41.3491   -7.7833   42.6439 C   0  0  0  0  0  0  0  0  0  0  0  0
   42.4602   -8.3066   42.7742 O   0  0  0  0  0  0  0  0  0  0  0  0
   38.9164   -6.9311   39.8956 C   0  0  0  0  0  0  0  0  0  0  0  0
   40.7315   -7.7035   41.3212 C   0  0  2  0  0  0  0  0  0  0  0  0
   39.7140   -6.6920   38.9440 C   0  0  0  0  0  0  0  0  0  0  0  0
   41.4327   -8.1045   40.2447 C   0  0  2  0  0  0  0  0  0  0  0  0
   42.6304   -8.6664   40.2107 O   0  0  0  0  0  0  0  0  0  0  0  0
   41.1382   -7.3326   38.9265 C   0  0  0  0  0  0  0  0  0  0  0  0
  1  2  1  0
  1  3  1  0
  3  4  1  6
  3  5  1  0
  5  6  1  1
  5  7  1  0
  6  8  1  0
  2  9  1  0
  7  9  1  0
  7 10  1  0
 10 11  2  0
  8 12  1  6
  8 13  1  0
 13 10  1  6
 12 14  1  0
 13 15  1  0
 15 16  1  1
 14 17  1  0
 15 17  1  0
M  END
$$$$
29
     RDKit          3D

 17 19  0  0  0  0  0  0  0  0999 V2000
   39.0195   -6.2743   45.8579 C   0  0  0  0  0  0  0  0  0  0  0  0
   40.1440   -6.8196   45.9549 C   0  0  0  0  0  0  0  0  0  0  0  0
   38.5322   -6.2554   44.7421 C   0  0  1  0  0  0  0  0  0  0  0  0
   37.1546   -5.6422   44.4641 N   0  0  0  0  0  0  0  0  0  0  0  0
   39.2133   -6.6567   43.5301 C   0  0  2  0  0  0  0  0  0  0  0  0
   38.5733   -6.5690   42.2078 O   0  0  0  0  0  0  0  0  0  0  0  0
   40.4591   -7.2191   43.7075 C   0  0  0  0  0  0  0  0  0  0  0  0
   39.4097   -7.0161   41.2609 C   0  0  2  0  0  0  0  0  0  0  0  0
   40.9977   -7.2558   45.0184 C   0  0  0  0  0  0  0  0  0  0  0  0
   41.3491   -7.7833   42.6439 C   0  0  0  0  0  0  0  0  0  0  0  0
   42.4602   -8.3066   42.7742 O   0  0  0  0  0  0  0  0  0  0  0  0
   38.9164   -6.9311   39.8956 C   0  0  0  0  0  0  0  0  0  0  0  0
   40.7315   -7.7035   41.3212 C   0  0  2  0  0  0  0  0  0  0  0  0
   39.7140   -6.6920   38.9440 C   0  0  2  0  0  0  0  0  0  0  0  0
   41.4327   -8.1045   40.2447 C   0  0  0  0  0  0  0  0  0  0  0  0
   39.3161   -6.5653   37.5930 O   0  0  0  0  0  0  0  0  0  0  0  0
   40.9344   -7.6120   38.9279 C   0  0  0  0  0  0  0  0  0  0  0  0
  1  2  1  0
  1  3  1  0
  3  4  1  6
  3  5  1  0
  5  6  1  1
  5  7  1  0
  6  8  1  0
  2  9  1  0
  7  9  1  0
  7 10  1  0
 10 11  2  0
  8 12  1  6
  8 13  1  0
 10 13  1  0
 12 14  1  0
 13 15  1  6
 14 16  1  6
 14 17  1  0
 15 17  1  0
M  END
$$$$
3
     RDKit          3D

 13 13  0  0  0  0  0  0  0  0999 V2000
   38.6889   -6.3536   45.8793 C   0  0  0  0  0  0  0  0  0  0  0  0
   39.8810   -6.8633   46.1804 C   0  0  0  0  0  0  0  0  0  0  0  0
   38.5371   -6.2487   44.6191 C   0  0  0  0  0  0  0  0  0  0  0  0
   39.3507   -6.5478   43.8265 C   0  0  0  0  0  0  0  0  0  0  0  0
   39.1772   -6.4259   42.2493 O   0  0  0  0  0  0  0  0  0  0  0  0
   38.5205   -7.4381   41.5836 C   0  0  0  0  0  0  0  0  0  0  0  0
   38.8121   -7.4611   40.1875 C   0  0  0  0  0  0  0  0  0  0  0  0
   40.6963   -6.9417   44.1274 C   0  0  0  0  0  0  0  0  0  0  0  0
   40.8951   -7.0819   45.4440 C   0  0  0  0  0  0  0  0  0  0  0  0
   39.6574   -6.5118   39.6559 O   0  0  0  0  0  0  0  0  0  0  0  0
   39.9598   -6.1819   38.5044 C   0  0  0  0  0  0  0  0  0  0  0  0
   39.4189   -5.0982   37.9804 C   0  0  0  0  0  0  0  0  0  0  0  0
   40.7263   -7.0355   37.7299 O   0  0  0  0  0  0  0  0  0  0  0  0
  1  2  1  0
  1  3  1  0
  3  4  1  0
  4  5  1  0
  5  6  1  0
  6  7  1  0
  4  8  1  0
  2  9  1  0
  8  9  1  0
  7 10  1  0
 10 11  1  0
 11 12  1  0
 11 13  2  0
M  END
$$$$
30
     RDKit          3D

 18 20  0  0  0  0  0  0  0  0999 V2000
   38.6889   -6.3536   45.8793 C   0  0  0  0  0  0  0  0  0  0  0  0
   38.4999   -6.1582   44.6526 C   0  0  0  0  0  0  0  0  0  0  0  0
   39.9152   -6.6374   46.1853 C   0  0  0  0  0  0  0  0  0  0  0  0
   40.9152   -6.9183   45.3691 C   0  0  0  0  0  0  0  0  0  0  0  0
   39.3429   -6.3701   43.7247 C   0  0  0  0  0  0  0  0  0  0  0  0
   40.6824   -6.8389   44.1836 C   0  0  0  0  0  0  0  0  0  0  0  0
   41.7708   -7.1308   43.0520 C   0  0  1  0  0  0  0  0  0  0  0  0
   43.0155   -6.8981   43.3425 N   0  0  0  0  0  0  0  0  0  0  0  0
   41.6553   -8.1347   42.0575 O   0  0  0  0  0  0  0  0  0  0  0  0
   43.9137   -7.3458   42.3908 C   0  0  1  0  0  0  0  0  0  0  0  0
   42.9245   -8.1451   41.4540 C   0  0  1  0  0  0  0  0  0  0  0  0
   43.3433   -8.8583   40.2792 C   0  0  0  0  0  0  0  0  0  0  0  0
   45.1943   -7.1095   42.0960 C   0  0  2  0  0  0  0  0  0  0  0  0
   45.6902   -7.8179   40.8351 C   0  0  0  0  0  0  0  0  0  0  0  0
   42.5703   -9.5813   39.5251 O   0  0  0  0  0  0  0  0  0  0  0  0
   44.7896   -8.6241   39.9902 C   0  0  0  0  0  0  0  0  0  0  0  0
   46.0342   -6.4375   42.8307 C   0  0  0  0  0  0  0  0  0  0  0  0
   41.9749   -9.0561   38.3911 C   0  0  0  0  0  0  0  0  0  0  0  0
  1  2  1  0
  1  3  1  0
  3  4  1  0
  2  5  1  0
  4  6  1  0
  5  6  1  0
  7  6  1  1
  7  8  1  0
  7  9  1  0
 10  8  1  6
 11  9  1  1
 10 11  1  0
 11 12  1  0
 10 13  1  0
 13 14  1  0
 12 15  1  0
 12 16  1  0
 14 16  1  0
 13 17  1  1
 15 18  1  0
M  END
$$$$
31
     RDKit          3D

 18 19  0  0  0  0  0  0  0  0999 V2000
   38.6889   -6.3536   45.8793 C   0  0  0  0  0  0  0  0  0  0  0  0
   38.4999   -6.1582   44.6526 C   0  0  0  0  0  0  0  0  0  0  0  0
   39.9152   -6.6374   46.1853 C   0  0  0  0  0  0  0  0  0  0  0  0
   40.9152   -6.9183   45.3691 C   0  0  0  0  0  0  0  0  0  0  0  0
   39.3429   -6.3701   43.7247 C   0  0  0  0  0  0  0  0  0  0  0  0
   40.6824   -6.8389   44.1836 C   0  0  0  0  0  0  0  0  0  0  0  0
   41.7708   -7.1308   43.0520 C   0  0  0  0  0  0  0  0  0  0  0  0
   41.3467   -7.5157   41.8182 N   0  0  0  0  0  0  0  0  0  0  0  0
   40.3757   -7.0369   40.9969 C   0  0  0  0  0  0  0  0  0  0  0  0
   42.9624   -7.0921   43.4497 O   0  0  0  0  0  0  0  0  0  0  0  0
   42.1221   -8.6205   41.0670 C   0  0  0  0  0  0  0  0  0  0  0  0
   39.4243   -6.3022   41.4087 O   0  0  0  0  0  0  0  0  0  0  0  0
   40.4673   -7.4587   39.5422 C   0  0  1  0  0  0  0  0  0  0  0  0
   41.5485   -8.5655   39.6880 C   0  0  0  0  0  0  0  0  0  0  0  0
   39.6589   -6.9748   38.5717 C   0  0  0  0  0  0  0  0  0  0  0  0
   39.1217   -7.9395   37.8147 O   0  0  0  0  0  0  0  0  0  0  0  0
   39.4241   -5.7286   38.3596 N   0  0  0  0  0  0  0  0  0  0  0  0
   40.2742   -4.6936   38.7596 O   0  0  0  0  0  0  0  0  0  0  0  0
  1  2  1  0
  1  3  1  0
  3  4  1  0
  2  5  1  0
  4  6  1  0
  5  6  1  0
  6  7  1  0
  7  8  1  0
  8  9  1  0
  7 10  2  0
  8 11  1  0
  9 12  2  0
  9 13  1  0
 11 14  1  0
 13 14  1  0
 13 15  1  1
 15 16  2  0
 15 17  1  0
 17 18  1  0
M  END
$$$$
32
     RDKit          3D

 18 18  0  0  0  0  0  0  0  0999 V2000
   39.9370   -5.0356   38.7551 O   0  0  0  0  0  0  0  0  0  0  0  0
   40.1679   -5.7768   38.0002 C   0  0  0  0  0  0  0  0  0  0  0  0
   40.9030   -6.9573   38.2045 N   0  0  0  0  0  0  0  0  0  0  0  0
   39.6876   -5.7103   36.7153 O   0  0  0  0  0  0  0  0  0  0  0  0
   41.1725   -7.3484   39.4911 C   0  0  2  0  0  0  0  0  0  0  0  0
   42.5422   -7.8296   39.6618 C   0  0  0  0  0  0  0  0  0  0  0  0
   43.1882   -7.7610   40.9096 N   0  0  0  0  0  0  0  0  0  0  0  0
   40.2667   -7.7668   40.1113 O   0  0  0  0  0  0  0  0  0  0  0  0
   43.2579   -8.4189   38.6630 O   0  0  0  0  0  0  0  0  0  0  0  0
   44.5608   -8.1062   41.1985 C   0  0  1  0  0  0  0  0  0  0  0  0
   45.4579   -6.9331   40.8689 C   0  0  1  0  0  0  0  0  0  0  0  0
   44.9466   -9.0015   42.0862 C   0  0  2  0  0  0  0  0  0  0  0  0
   43.9832  -10.0111   42.4884 O   0  0  0  0  0  0  0  0  0  0  0  0
   45.9838   -8.6998   43.0165 C   0  0  1  0  0  0  0  0  0  0  0  0
   46.4398   -9.7135   44.0334 C   0  0  0  0  0  0  0  0  0  0  0  0
   46.9055   -7.6942   42.6247 C   0  0  0  0  0  0  0  0  0  0  0  0
   46.5969   -6.9101   41.7006 C   0  0  0  0  0  0  0  0  0  0  0  0
   45.2382   -6.0139   39.6484 Cl  0  0  0  0  0  0  0  0  0  0  0  0
  1  2  2  0
  2  3  1  0
  2  4  1  0
  3  5  1  0
  5  6  1  0
  6  7  1  0
  5  8  1  6
  6  9  2  0
 10  7  1  1
 10 11  1  0
 10 12  1  0
 12 13  1  1
 12 14  1  0
 14 15  1  6
 14 16  1  0
 11 17  1  0
 16 17  1  0
 11 18  1  6
M  END
$$$$
33
     RDKit          3D

 18 18  0  0  0  0  0  0  0  0999 V2000
   39.0195   -6.2743   45.8579 C   0  0  1  0  0  0  0  0  0  0  0  0
   38.5836   -6.0987   44.6776 C   0  0  2  0  0  0  0  0  0  0  0  0
   37.2514   -5.6858   44.4391 O   0  0  0  0  0  0  0  0  0  0  0  0
   38.2475   -6.3062   47.0572 O   0  0  0  0  0  0  0  0  0  0  0  0
   38.9008   -7.2849   43.7077 C   0  0  2  0  0  0  0  0  0  0  0  0
   40.3178   -7.5763   43.7933 O   0  0  0  0  0  0  0  0  0  0  0  0
   38.5929   -7.0722   42.2623 O   0  0  0  0  0  0  0  0  0  0  0  0
   39.9320   -7.5599   46.0149 C   0  0  1  0  0  0  0  0  0  0  0  0
   40.9294   -7.6250   44.9924 C   0  0  1  0  0  0  0  0  0  0  0  0
   40.2891   -7.9135   47.3530 O   0  0  0  0  0  0  0  0  0  0  0  0
   39.5753   -7.3908   41.3312 C   0  0  0  0  0  0  0  0  0  0  0  0
   41.8756   -8.7491   45.0496 C   0  0  0  0  0  0  0  0  0  0  0  0
   39.7501   -6.4800   40.2797 C   0  0  0  0  0  0  0  0  0  0  0  0
   43.2716   -8.3377   45.1321 O   0  0  0  0  0  0  0  0  0  0  0  0
   39.8067   -7.1162   38.9992 O   0  0  0  0  0  0  0  0  0  0  0  0
   39.8702   -6.4540   37.9815 C   0  0  0  0  0  0  0  0  0  0  0  0
   39.9875   -6.9852   36.7658 O   0  0  0  0  0  0  0  0  0  0  0  0
   39.8639   -5.0121   38.0899 C   0  0  0  0  0  0  0  0  0  0  0  0
  1  2  1  0
  2  3  1  1
  1  4  1  1
  2  5  1  0
  5  6  1  0
  5  7  1  6
  1  8  1  0
  6  9  1  0
  8  9  1  0
  8 10  1  1
  7 11  1  0
  9 12  1  6
 11 13  1  0
 12 14  1  0
 13 15  1  0
 15 16  1  0
 16 17  2  0
 16 18  1  0
M  END
$$$$
34
     RDKit          3D

 18 20  0  0  0  0  0  0  0  0999 V2000
   39.0195   -6.2743   45.8579 C   0  0  0  0  0  0  0  0  0  0  0  0
   40.1440   -6.8196   45.9549 C   0  0  0  0  0  0  0  0  0  0  0  0
   38.5322   -6.2554   44.7421 C   0  0  1  0  0  0  0  0  0  0  0  0
   37.1546   -5.6422   44.4641 N   0  0  0  0  0  0  0  0  0  0  0  0
   39.2133   -6.6567   43.5301 C   0  0  2  0  0  0  0  0  0  0  0  0
   38.5733   -6.5690   42.2078 O   0  0  0  0  0  0  0  0  0  0  0  0
   40.4591   -7.2191   43.7075 C   0  0  0  0  0  0  0  0  0  0  0  0
   39.4097   -7.0161   41.2609 C   0  0  2  0  0  0  0  0  0  0  0  0
   40.9977   -7.2558   45.0184 C   0  0  0  0  0  0  0  0  0  0  0  0
   41.3491   -7.7833   42.6439 C   0  0  0  0  0  0  0  0  0  0  0  0
   42.4602   -8.3066   42.7742 O   0  0  0  0  0  0  0  0  0  0  0  0
   38.9164   -6.9311   39.8956 C   0  0  0  0  0  0  0  0  0  0  0  0
   40.7315   -7.7035   41.3212 C   0  0  2  0  0  0  0  0  0  0  0  0
   39.7140   -6.6920   38.9440 C   0  0  2  0  0  0  0  0  0  0  0  0
   41.4327   -8.1045   40.2447 C   0  0  0  0  0  0  0  0  0  0  0  0
   39.3161   -6.5653   37.5930 O   0  0  0  0  0  0  0  0  0  0  0  0
   41.0063   -7.5220   39.0055 C   0  0  0  0  0  0  0  0  0  0  0  0
   39.9851   -5.5579   36.8435 C   0  0  0  0  0  0  0  0  0  0  0  0
  1  2  1  0
  1  3  1  0
  3  4  1  6
  3  5  1  0
  5  6  1  1
  5  7  1  0
  6  8  1  0
  2  9  1  0
  7  9  1  0
  7 10  1  0
 10 11  2  0
  8 12  1  6
  8 13  1  0
 10 13  1  0
 12 14  1  0
 13 15  1  6
 14 16  1  6
 14 17  1  0
 15 17  1  0
 16 18  1  0
M  END
$$$$
35
     RDKit          3D

 18 20  0  0  0  0  0  0  0  0999 V2000
   39.0195   -6.2743   45.8579 C   0  0  0  0  0  0  0  0  0  0  0  0
   38.5836   -6.0987   44.6776 C   0  0  0  0  0  0  0  0  0  0  0  0
   40.3654   -6.4925   46.0543 C   0  0  0  0  0  0  0  0  0  0  0  0
   39.2374   -6.3650   43.6879 C   0  0  0  0  0  0  0  0  0  0  0  0
   40.4437   -6.7429   43.7429 C   0  0  0  0  0  0  0  0  0  0  0  0
   41.1294   -6.8330   44.9817 C   0  0  2  0  0  0  0  0  0  0  0  0
   42.5883   -7.3381   45.1839 C   0  0  0  0  0  0  0  0  0  0  0  0
   41.4002   -7.1345   42.5257 C   0  0  1  0  0  0  0  0  0  0  0  0
   43.2116   -7.6975   43.9672 N   0  0  0  0  0  0  0  0  0  0  0  0
   44.5382   -8.1201   44.1434 C   0  0  2  0  0  0  0  0  0  0  0  0
   42.6690   -7.5895   42.7630 C   0  0  0  0  0  0  0  0  0  0  0  0
   40.7930   -7.1553   41.2373 N   0  0  0  0  0  0  0  0  0  0  0  0
   39.8196   -6.5597   40.7598 O   0  0  0  0  0  0  0  0  0  0  0  0
   45.5266   -7.2072   44.6270 C   0  0  0  0  0  0  0  0  0  0  0  0
   43.3131   -7.9541   41.5788 N   0  0  0  0  0  0  0  0  0  0  0  0
   44.6592   -8.3083   41.5334 C   0  0  0  0  0  0  0  0  0  0  0  0
   45.1986   -8.8058   42.9938 C   0  0  0  0  0  0  0  0  0  0  0  0
   45.3145   -8.5118   40.5384 O   0  0  0  0  0  0  0  0  0  0  0  0
  1  2  1  0
  1  3  1  0
  2  4  1  0
  4  5  1  0
  6  3  1  1
  5  6  1  0
  6  7  1  0
  5  8  1  0
  7  9  1  0
  9 10  1  0
  8 11  1  0
  9 11  1  0
  8 12  1  1
 12 13  2  0
 10 14  1  6
 11 15  1  0
 15 16  1  0
 10 17  1  0
 16 17  1  0
 16 18  2  0
M  END
$$$$
36
     RDKit          3D

 18 20  0  0  0  0  0  0  0  0999 V2000
   38.6889   -6.3536   45.8793 C   0  0  0  0  0  0  0  0  0  0  0  0
   38.4999   -6.1582   44.6526 C   0  0  0  0  0  0  0  0  0  0  0  0
   39.4441   -6.3099   43.6539 C   0  0  0  0  0  0  0  0  0  0  0  0
   40.6463   -6.9277   44.0075 C   0  0  0  0  0  0  0  0  0  0  0  0
   39.8783   -6.9405   46.2009 C   0  0  0  0  0  0  0  0  0  0  0  0
   40.8882   -7.1962   45.3648 C   0  0  0  0  0  0  0  0  0  0  0  0
   41.7789   -7.2269   42.9660 C   0  0  1  0  0  0  0  0  0  0  0  0
   43.0285   -6.9920   43.2707 N   0  0  0  0  0  0  0  0  0  0  0  0
   44.0320   -7.3045   42.4019 C   0  0  1  0  0  0  0  0  0  0  0  0
   41.3646   -7.8039   41.7919 O   0  0  0  0  0  0  0  0  0  0  0  0
   43.6170   -7.7877   41.1642 C   0  0  0  0  0  0  0  0  0  0  0  0
   42.2907   -8.0838   40.8581 C   0  0  0  0  0  0  0  0  0  0  0  0
   44.5570   -8.0192   40.0363 C   0  0  0  0  0  0  0  0  0  0  0  0
   45.3375   -6.9418   42.6866 C   0  0  2  0  0  0  0  0  0  0  0  0
   46.3308   -7.2462   41.6250 C   0  0  0  0  0  0  0  0  0  0  0  0
   45.8229   -7.6812   40.3300 C   0  0  0  0  0  0  0  0  0  0  0  0
   45.9217   -6.4884   44.1015 Cl  0  0  0  0  0  0  0  0  0  0  0  0
   41.8516   -8.6356   39.6821 O   0  0  0  0  0  0  0  0  0  0  0  0
  1  2  1  0
  2  3  1  0
  3  4  1  0
  1  5  1  0
  4  6  1  0
  5  6  1  0
  7  4  1  1
  7  8  1  0
  9  8  1  6
  7 10  1  0
  9 11  1  0
 10 12  1  0
 11 12  1  0
 11 13  1  0
  9 14  1  0
 14 15  1  0
 13 16  1  0
 15 16  1  0
 14 17  1  1
 12 18  2  0
M  END
$$$$
37
     RDKit          3D

 18 20  0  0  0  0  0  0  0  0999 V2000
   39.9370   -5.0356   38.7551 O   0  0  0  0  0  0  0  0  0  0  0  0
   40.1031   -6.2899   38.5352 C   0  0  0  0  0  0  0  0  0  0  0  0
   40.5451   -7.1915   39.4273 N   0  0  0  0  0  0  0  0  0  0  0  0
   39.8207   -6.8043   37.2595 C   0  0  0  0  0  0  0  0  0  0  0  0
   40.8773   -6.8567   40.7810 C   0  0  0  0  0  0  0  0  0  0  0  0
   42.1276   -7.6567   41.2275 C   0  0  0  0  0  0  0  0  0  0  0  0
   42.9592   -8.0847   40.3315 C   0  0  2  0  0  0  0  0  0  0  0  0
   42.6207   -8.3948   38.9343 C   0  0  0  0  0  0  0  0  0  0  0  0
   44.3900   -8.4772   40.7173 C   0  0  0  0  0  0  0  0  0  0  0  0
   44.6120   -9.2855   41.5828 O   0  0  0  0  0  0  0  0  0  0  0  0
   41.3278   -8.0118   38.4751 C   0  0  2  0  0  0  0  0  0  0  0  0
   45.4482   -7.5299   40.4972 N   0  0  0  0  0  0  0  0  0  0  0  0
   40.7395   -7.7297   37.2453 O   0  0  0  0  0  0  0  0  0  0  0  0
   45.2478   -6.4619   39.5642 C   0  0  0  0  0  0  0  0  0  0  0  0
   44.5220   -6.3628   38.7368 O   0  0  0  0  0  0  0  0  0  0  0  0
   46.3639   -5.5391   39.7297 O   0  0  0  0  0  0  0  0  0  0  0  0
   46.7451   -7.4654   41.0248 C   0  0  0  0  0  0  0  0  0  0  0  0
   47.3483   -6.3361   40.4996 C   0  0  0  0  0  0  0  0  0  0  0  0
  1  2  2  0
  2  3  1  0
  2  4  1  0
  3  5  1  0
  5  6  1  0
  6  7  1  0
  7  8  1  0
  7  9  1  1
  9 10  2  0
  3 11  1  0
 11  8  1  6
  9 12  1  0
  4 13  1  0
 11 13  1  0
 12 14  1  0
 14 15  2  0
 14 16  1  0
 12 17  1  0
 16 18  1  0
 17 18  1  0
M  END
$$$$
38
     RDKit          3D

 18 18  0  0  0  0  0  0  0  0999 V2000
   39.9370   -5.0356   38.7551 O   0  0  0  0  0  0  0  0  0  0  0  0
   40.1679   -5.7768   38.0002 C   0  0  0  0  0  0  0  0  0  0  0  0
   40.9030   -6.9573   38.2045 N   0  0  0  0  0  0  0  0  0  0  0  0
   39.6876   -5.7103   36.7153 O   0  0  0  0  0  0  0  0  0  0  0  0
   41.1725   -7.3484   39.4911 C   0  0  2  0  0  0  0  0  0  0  0  0
   42.5422   -7.8296   39.6618 C   0  0  0  0  0  0  0  0  0  0  0  0
   43.1882   -7.7610   40.9096 N   0  0  0  0  0  0  0  0  0  0  0  0
   40.2667   -7.7668   40.1113 O   0  0  0  0  0  0  0  0  0  0  0  0
   43.2579   -8.4189   38.6630 O   0  0  0  0  0  0  0  0  0  0  0  0
   44.5608   -8.1062   41.1985 C   0  0  1  0  0  0  0  0  0  0  0  0
   45.4579   -6.9331   40.8689 C   0  0  1  0  0  0  0  0  0  0  0  0
   44.9466   -9.0015   42.0862 C   0  0  2  0  0  0  0  0  0  0  0  0
   43.9832  -10.0111   42.4884 O   0  0  0  0  0  0  0  0  0  0  0  0
   45.9838   -8.6998   43.0165 C   0  0  1  0  0  0  0  0  0  0  0  0
   46.4398   -9.7135   44.0334 C   0  0  0  0  0  0  0  0  0  0  0  0
   46.8172   -7.5962   42.8559 C   0  0  0  0  0  0  0  0  0  0  0  0
   46.6164   -6.7821   41.7076 C   0  0  0  0  0  0  0  0  0  0  0  0
   45.2725   -6.0760   39.8145 O   0  0  0  0  0  0  0  0  0  0  0  0
  1  2  2  0
  2  3  1  0
  2  4  1  0
  3  5  1  0
  5  6  1  0
  6  7  1  0
  5  8  1  6
  6  9  2  0
 10  7  1  1
 10 11  1  0
 10 12  1  0
 12 13  1  1
 12 14  1  0
 14 15  1  6
 14 16  1  0
 11 17  1  0
 16 17  1  0
 11 18  1  6
M  END
$$$$
39
     RDKit          3D

 18 20  0  0  0  0  0  0  0  0999 V2000
   38.6889   -6.3536   45.8793 C   0  0  0  0  0  0  0  0  0  0  0  0
   38.4999   -6.1582   44.6526 C   0  0  0  0  0  0  0  0  0  0  0  0
   39.4441   -6.3099   43.6539 C   0  0  0  0  0  0  0  0  0  0  0  0
   40.6463   -6.9277   44.0075 C   0  0  0  0  0  0  0  0  0  0  0  0
   39.8783   -6.9405   46.2009 C   0  0  0  0  0  0  0  0  0  0  0  0
   40.8882   -7.1962   45.3648 C   0  0  0  0  0  0  0  0  0  0  0  0
   41.7789   -7.2269   42.9660 C   0  0  1  0  0  0  0  0  0  0  0  0
   43.0285   -6.9920   43.2707 N   0  0  0  0  0  0  0  0  0  0  0  0
   44.0320   -7.3045   42.4019 C   0  0  1  0  0  0  0  0  0  0  0  0
   41.3646   -7.8039   41.7919 O   0  0  0  0  0  0  0  0  0  0  0  0
   43.6170   -7.7877   41.1642 C   0  0  0  0  0  0  0  0  0  0  0  0
   42.2907   -8.0838   40.8581 C   0  0  0  0  0  0  0  0  0  0  0  0
   44.5570   -8.0192   40.0363 C   0  0  0  0  0  0  0  0  0  0  0  0
   45.3375   -6.9418   42.6866 C   0  0  0  0  0  0  0  0  0  0  0  0
   46.3308   -7.2462   41.6250 C   0  0  0  0  0  0  0  0  0  0  0  0
   45.8229   -7.6812   40.3300 C   0  0  0  0  0  0  0  0  0  0  0  0
   41.8695   -8.6546   39.6957 O   0  0  0  0  0  0  0  0  0  0  0  0
   45.8524   -6.3144   43.7928 C   0  0  0  0  0  0  0  0  0  0  0  0
  1  2  1  0
  2  3  1  0
  3  4  1  0
  1  5  1  0
  4  6  1  0
  5  6  1  0
  7  4  1  1
  7  8  1  0
  9  8  1  6
  7 10  1  0
  9 11  1  0
 10 12  1  0
 11 12  1  0
 11 13  1  0
  9 14  1  0
 14 15  1  0
 13 16  1  0
 15 16  1  0
 12 17  2  0
 14 18  1  0
M  END
$$$$
4
     RDKit          3D

 14 14  0  0  0  0  0  0  0  0999 V2000
   39.0195   -6.2743   45.8579 C   0  0  1  0  0  0  0  0  0  0  0  0
   38.5836   -6.0987   44.6776 C   0  0  2  0  0  0  0  0  0  0  0  0
   37.2514   -5.6858   44.4391 O   0  0  0  0  0  0  0  0  0  0  0  0
   38.2475   -6.3062   47.0572 O   0  0  0  0  0  0  0  0  0  0  0  0
   38.9008   -7.2849   43.7077 C   0  0  2  0  0  0  0  0  0  0  0  0
   40.3178   -7.5763   43.7933 O   0  0  0  0  0  0  0  0  0  0  0  0
   38.5929   -7.0722   42.2623 O   0  0  0  0  0  0  0  0  0  0  0  0
   39.9320   -7.5599   46.0149 C   0  0  1  0  0  0  0  0  0  0  0  0
   40.9294   -7.6250   44.9924 C   0  0  0  0  0  0  0  0  0  0  0  0
   40.2891   -7.9135   47.3530 O   0  0  0  0  0  0  0  0  0  0  0  0
   39.5753   -7.3908   41.3312 C   0  0  0  0  0  0  0  0  0  0  0  0
   42.1912   -7.8956   45.1445 O   0  0  0  0  0  0  0  0  0  0  0  0
   39.7409   -6.5028   40.2552 C   0  0  0  0  0  0  0  0  0  0  0  0
   40.8937   -6.8175   39.4494 O   0  0  0  0  0  0  0  0  0  0  0  0
  1  2  1  0
  2  3  1  1
  1  4  1  1
  2  5  1  0
  5  6  1  0
  5  7  1  6
  1  8  1  0
  6  9  1  0
  8  9  1  0
  8 10  1  1
  7 11  1  0
  9 12  2  0
 11 13  1  0
 13 14  1  0
M  END
$$$$
40
     RDKit          3D

 18 19  0  0  0  0  0  0  0  0999 V2000
   39.0195   -6.2743   45.8579 C   0  0  0  0  0  0  0  0  0  0  0  0
   38.5836   -6.0987   44.6776 C   0  0  0  0  0  0  0  0  0  0  0  0
   38.2313   -6.3106   46.9841 O   0  0  0  0  0  0  0  0  0  0  0  0
   40.3230   -7.0461   45.6936 C   0  0  0  0  0  0  0  0  0  0  0  0
   40.7580   -7.0612   44.5377 C   0  0  0  0  0  0  0  0  0  0  0  0
   39.1467   -6.2593   43.4609 C   0  0  0  0  0  0  0  0  0  0  0  0
   40.2929   -6.8275   43.4076 C   0  0  0  0  0  0  0  0  0  0  0  0
   41.0431   -7.1234   42.1906 C   0  0  0  0  0  0  0  0  0  0  0  0
   40.3788   -7.0244   40.9337 N   0  0  0  0  0  0  0  0  0  0  0  0
   42.2276   -7.7560   42.1069 N   0  0  0  0  0  0  0  0  0  0  0  0
   41.1171   -7.5340   39.8715 C   0  0  1  0  0  0  0  0  0  0  0  0
   40.9671   -7.5390   38.5290 C   0  0  0  0  0  0  0  0  0  0  0  0
   42.4436   -7.9906   40.7414 C   0  0  0  0  0  0  0  0  0  0  0  0
   41.6870   -8.3069   37.8202 O   0  0  0  0  0  0  0  0  0  0  0  0
   40.0631   -6.6882   37.9935 N   0  0  0  0  0  0  0  0  0  0  0  0
   40.0797   -5.3266   38.0120 C   0  0  0  0  0  0  0  0  0  0  0  0
   39.0538   -4.6241   37.5825 O   0  0  0  0  0  0  0  0  0  0  0  0
   40.9852   -4.7628   38.7130 O   0  0  0  0  0  0  0  0  0  0  0  0
  1  2  1  0
  1  3  1  0
  1  4  1  0
  4  5  1  0
  2  6  1  0
  5  7  1  0
  6  7  1  0
  7  8  1  0
  8  9  1  0
  8 10  2  0
  9 11  1  0
 11 12  1  6
 10 13  1  0
 11 13  1  0
 12 14  2  0
 12 15  1  0
 15 16  1  0
 16 17  1  0
 16 18  2  0
M  END
$$$$
41
     RDKit          3D

 18 19  0  0  0  0  0  0  0  0999 V2000
   39.0195   -6.2743   45.8579 C   0  0  0  0  0  0  0  0  0  0  0  0
   40.1440   -6.8196   45.9549 C   0  0  0  0  0  0  0  0  0  0  0  0
   40.9150   -7.1632   44.8946 C   0  0  1  0  0  0  0  0  0  0  0  0
   38.6129   -6.0378   44.5493 C   0  0  0  0  0  0  0  0  0  0  0  0
   39.3003   -6.3710   43.4444 C   0  0  0  0  0  0  0  0  0  0  0  0
   40.5309   -6.9955   43.6652 C   0  0  0  0  0  0  0  0  0  0  0  0
   41.4220   -7.4610   42.4240 C   0  0  0  0  0  0  0  0  0  0  0  0
   42.7073   -7.6125   42.6152 N   0  0  0  0  0  0  0  0  0  0  0  0
   43.4739   -7.1489   43.6137 C   0  0  0  0  0  0  0  0  0  0  0  0
   42.4571   -7.3052   45.1068 C   0  0  0  0  0  0  0  0  0  0  0  0
   44.6335   -6.9039   43.9198 O   0  0  0  0  0  0  0  0  0  0  0  0
   43.5258   -8.2831   41.5709 C   0  0  0  0  0  0  0  0  0  0  0  0
   40.7689   -7.7249   41.2570 O   0  0  0  0  0  0  0  0  0  0  0  0
   43.8954   -7.5486   40.3841 C   0  0  0  0  0  0  0  0  0  0  0  0
   45.3277   -7.3618   40.2464 C   0  0  0  0  0  0  0  0  0  0  0  0
   45.7714   -6.3952   39.3639 C   0  0  0  0  0  0  0  0  0  0  0  0
   44.9341   -6.2179   38.2905 O   0  0  0  0  0  0  0  0  0  0  0  0
   46.9027   -5.7497   39.5426 O   0  0  0  0  0  0  0  0  0  0  0  0
  1  2  1  0
  3  2  1  1
  1  4  1  0
  4  5  1  0
  3  6  1  0
  5  6  1  0
  6  7  1  0
  7  8  1  0
  8  9  1  0
  3 10  1  0
  9 10  1  0
  9 11  2  0
  8 12  1  0
  7 13  2  0
 12 14  1  0
 14 15  1  0
 15 16  1  0
 16 17  1  0
 16 18  2  0
M  END
$$$$
42
     RDKit          3D

 18 19  0  0  0  0  0  0  0  0999 V2000
   39.0195   -6.2743   45.8579 C   0  0  0  0  0  0  0  0  0  0  0  0
   38.5836   -6.0987   44.6776 C   0  0  0  0  0  0  0  0  0  0  0  0
   40.3654   -6.4925   46.0543 C   0  0  0  0  0  0  0  0  0  0  0  0
   39.2374   -6.3650   43.6879 C   0  0  0  0  0  0  0  0  0  0  0  0
   40.4437   -6.7429   43.7429 C   0  0  0  0  0  0  0  0  0  0  0  0
   41.1294   -6.8330   44.9817 C   0  0  2  0  0  0  0  0  0  0  0  0
   42.5883   -7.3381   45.1839 C   0  0  2  0  0  0  0  0  0  0  0  0
   41.4002   -7.1345   42.5257 C   0  0  1  0  0  0  0  0  0  0  0  0
   43.2116   -7.6975   43.9672 N   0  0  0  0  0  0  0  0  0  0  0  0
   44.5382   -8.1201   44.1434 C   0  0  0  0  0  0  0  0  0  0  0  0
   42.6690   -7.5895   42.7630 C   0  0  0  0  0  0  0  0  0  0  0  0
   40.7930   -7.1553   41.2373 N   0  0  0  0  0  0  0  0  0  0  0  0
   39.8196   -6.5597   40.7598 O   0  0  0  0  0  0  0  0  0  0  0  0
   45.5266   -7.2072   44.6270 C   0  0  0  0  0  0  0  0  0  0  0  0
   42.8953   -7.9967   46.3594 C   0  0  0  0  0  0  0  0  0  0  0  0
   45.7904   -6.1392   44.0529 O   0  0  0  0  0  0  0  0  0  0  0  0
   43.5143   -7.9470   41.7294 O   0  0  0  0  0  0  0  0  0  0  0  0
   46.3414   -7.5593   45.6202 O   0  0  0  0  0  0  0  0  0  0  0  0
  1  2  1  0
  1  3  1  0
  2  4  1  0
  4  5  1  0
  6  3  1  1
  5  6  1  0
  6  7  1  0
  5  8  1  0
  7  9  1  0
  9 10  1  0
  8 11  1  0
  9 11  1  0
  8 12  1  1
 12 13  2  0
 10 14  1  0
  7 15  1  1
 14 16  2  0
 11 17  2  0
 14 18  1  0
M  END
$$$$
43
     RDKit          3D

 18 20  0  0  0  0  0  0  0  0999 V2000
   39.0195   -6.2743   45.8579 C   0  0  2  0  0  0  0  0  0  0  0  0
   40.1440   -6.8196   45.9549 C   0  0  0  0  0  0  0  0  0  0  0  0
   40.9150   -7.1632   44.8946 C   0  0  0  0  0  0  0  0  0  0  0  0
   38.1787   -5.9655   47.0141 O   0  0  0  0  0  0  0  0  0  0  0  0
   38.4101   -5.9578   44.5583 C   0  0  2  0  0  0  0  0  0  0  0  0
   37.1381   -5.3849   44.4126 N   0  0  0  0  0  0  0  0  0  0  0  0
   39.1798   -6.3645   43.4337 C   0  0  0  0  0  0  0  0  0  0  0  0
   42.2639   -7.7225   45.0851 N   0  0  0  0  0  0  0  0  0  0  0  0
   40.4912   -7.0394   43.6248 C   0  0  1  0  0  0  0  0  0  0  0  0
   43.1392   -7.6612   44.1074 C   0  0  2  0  0  0  0  0  0  0  0  0
   42.7394   -7.4707   42.7570 C   0  0  0  0  0  0  0  0  0  0  0  0
   41.3210   -7.1579   42.5004 N   0  0  0  0  0  0  0  0  0  0  0  0
   44.4735   -8.1134   44.3150 C   0  0  2  0  0  0  0  0  0  0  0  0
   43.5664   -7.5897   41.6370 N   0  0  0  0  0  0  0  0  0  0  0  0
   44.8487   -7.8598   41.9068 C   0  0  0  0  0  0  0  0  0  0  0  0
   45.0351   -8.2294   45.5993 O   0  0  0  0  0  0  0  0  0  0  0  0
   45.3240   -6.8955   46.2646 C   0  0  0  0  0  0  0  0  0  0  0  0
   45.3210   -8.3607   43.2073 C   0  0  0  0  0  0  0  0  0  0  0  0
  1  2  1  0
  2  3  1  0
  1  4  1  1
  1  5  1  0
  5  6  1  1
  5  7  1  0
  3  8  1  0
  3  9  1  0
  9  7  1  1
 10  8  1  6
 10 11  1  0
  9 12  1  0
 11 12  1  0
 10 13  1  0
 11 14  1  0
 14 15  1  0
 13 16  1  1
 16 17  1  0
 13 18  1  0
 15 18  1  0
M  END
$$$$
44
     RDKit          3D

 18 20  0  0  0  0  0  0  0  0999 V2000
   39.0195   -6.2743   45.8579 C   0  0  0  0  0  0  0  0  0  0  0  0
   40.1440   -6.8196   45.9549 C   0  0  0  0  0  0  0  0  0  0  0  0
   40.9150   -7.1632   44.8946 C   0  0  1  0  0  0  0  0  0  0  0  0
   38.6129   -6.0378   44.5493 C   0  0  0  0  0  0  0  0  0  0  0  0
   39.3003   -6.3710   43.4444 C   0  0  0  0  0  0  0  0  0  0  0  0
   40.5309   -6.9955   43.6652 C   0  0  0  0  0  0  0  0  0  0  0  0
   41.4220   -7.4610   42.4240 C   0  0  0  0  0  0  0  0  0  0  0  0
   42.7073   -7.6125   42.6152 N   0  0  0  0  0  0  0  0  0  0  0  0
   43.4739   -7.1489   43.6137 C   0  0  0  0  0  0  0  0  0  0  0  0
   42.4571   -7.3052   45.1068 C   0  0  0  0  0  0  0  0  0  0  0  0
   44.6335   -6.9039   43.9198 O   0  0  0  0  0  0  0  0  0  0  0  0
   40.8488   -7.7354   41.2139 O   0  0  0  0  0  0  0  0  0  0  0  0
   43.5694   -7.9542   41.4097 C   0  0  1  0  0  0  0  0  0  0  0  0
   43.7369   -7.1553   40.2693 C   0  0  0  0  0  0  0  0  0  0  0  0
   45.0449   -8.3276   41.7587 C   0  0  0  0  0  0  0  0  0  0  0  0
   45.9171   -7.3108   41.3734 N   0  0  0  0  0  0  0  0  0  0  0  0
   45.1741   -6.6967   40.1647 C   0  0  0  0  0  0  0  0  0  0  0  0
   45.6764   -5.8707   39.2979 O   0  0  0  0  0  0  0  0  0  0  0  0
  1  2  1  0
  3  2  1  1
  1  4  1  0
  4  5  1  0
  3  6  1  0
  5  6  1  0
  6  7  1  0
  7  8  1  0
  8  9  1  0
  3 10  1  0
  9 10  1  0
  9 11  2  0
  7 12  2  0
 13  8  1  1
 13 14  1  0
 13 15  1  0
 15 16  1  0
 14 17  1  0
 16 17  1  0
 17 18  2  0
M  END
$$$$
45
     RDKit          3D

 18 19  0  0  0  0  0  0  0  0999 V2000
   39.0195   -6.2743   45.8579 C   0  0  0  0  0  0  0  0  0  0  0  0
   38.5836   -6.0987   44.6776 C   0  0  0  0  0  0  0  0  0  0  0  0
   38.2313   -6.3106   46.9841 O   0  0  0  0  0  0  0  0  0  0  0  0
   40.3230   -7.0461   45.6936 C   0  0  0  0  0  0  0  0  0  0  0  0
   40.7580   -7.0612   44.5377 C   0  0  0  0  0  0  0  0  0  0  0  0
   39.1467   -6.2593   43.4609 C   0  0  0  0  0  0  0  0  0  0  0  0
   40.2929   -6.8275   43.4076 C   0  0  0  0  0  0  0  0  0  0  0  0
   41.0431   -7.1234   42.1906 C   0  0  0  0  0  0  0  0  0  0  0  0
   40.3788   -7.0244   40.9337 N   0  0  0  0  0  0  0  0  0  0  0  0
   42.2276   -7.7560   42.1069 N   0  0  0  0  0  0  0  0  0  0  0  0
   41.1171   -7.5340   39.8715 C   0  0  1  0  0  0  0  0  0  0  0  0
   40.9671   -7.5390   38.5290 C   0  0  0  0  0  0  0  0  0  0  0  0
   42.4436   -7.9906   40.7414 C   0  0  0  0  0  0  0  0  0  0  0  0
   41.6870   -8.3069   37.8202 O   0  0  0  0  0  0  0  0  0  0  0  0
   39.8644   -6.9144   38.0797 N   0  0  0  0  0  0  0  0  0  0  0  0
   39.6930   -6.6133   36.6894 C   0  0  0  0  0  0  0  0  0  0  0  0
   39.2837   -5.2206   36.4364 C   0  0  0  0  0  0  0  0  0  0  0  0
   39.2352   -4.3881   37.5319 C   0  0  0  0  0  0  0  0  0  0  0  0
  1  2  1  0
  1  3  1  0
  1  4  1  0
  4  5  1  0
  2  6  1  0
  5  7  1  0
  6  7  1  0
  7  8  1  0
  8  9  1  0
  8 10  2  0
  9 11  1  0
 11 12  1  6
 10 13  1  0
 11 13  1  0
 12 14  2  0
 12 15  1  0
 15 16  1  0
 16 17  1  0
 17 18  1  0
M  END
$$$$
46
     RDKit          3D

 18 18  0  0  0  0  0  0  0  0999 V2000
   39.0195   -6.2743   45.8579 C   0  0  1  0  0  0  0  0  0  0  0  0
   38.5836   -6.0987   44.6776 C   0  0  2  0  0  0  0  0  0  0  0  0
   37.2514   -5.6858   44.4391 O   0  0  0  0  0  0  0  0  0  0  0  0
   38.2475   -6.3062   47.0572 O   0  0  0  0  0  0  0  0  0  0  0  0
   38.9008   -7.2849   43.7077 C   0  0  2  0  0  0  0  0  0  0  0  0
   40.3178   -7.5763   43.7933 O   0  0  0  0  0  0  0  0  0  0  0  0
   38.5929   -7.0722   42.2623 O   0  0  0  0  0  0  0  0  0  0  0  0
   39.9320   -7.5599   46.0149 C   0  0  1  0  0  0  0  0  0  0  0  0
   40.9294   -7.6250   44.9924 C   0  0  1  0  0  0  0  0  0  0  0  0
   40.2891   -7.9135   47.3530 O   0  0  0  0  0  0  0  0  0  0  0  0
   39.5753   -7.3908   41.3312 C   0  0  0  0  0  0  0  0  0  0  0  0
   41.8756   -8.7491   45.0496 C   0  0  0  0  0  0  0  0  0  0  0  0
   39.7501   -6.4800   40.2797 C   0  0  0  0  0  0  0  0  0  0  0  0
   43.2716   -8.3377   45.1321 O   0  0  0  0  0  0  0  0  0  0  0  0
   40.9082   -6.7710   39.5091 O   0  0  0  0  0  0  0  0  0  0  0  0
   43.7077   -7.2916   45.3169 C   0  0  0  0  0  0  0  0  0  0  0  0
   44.4313   -7.0882   46.5447 C   0  0  0  0  0  0  0  0  0  0  0  0
   45.7472   -6.6947   46.4287 O   0  0  0  0  0  0  0  0  0  0  0  0
  1  2  1  0
  2  3  1  1
  1  4  1  1
  2  5  1  0
  5  6  1  0
  5  7  1  6
  1  8  1  0
  6  9  1  0
  8  9  1  0
  8 10  1  1
  7 11  1  0
  9 12  1  6
 11 13  1  0
 12 14  1  0
 13 15  1  0
 14 16  1  0
 16 17  1  0
 17 18  1  0
M  END
$$$$
47
     RDKit          3D

 18 19  0  0  0  0  0  0  0  0999 V2000
   38.6889   -6.3536   45.8793 C   0  0  0  0  0  0  0  0  0  0  0  0
   38.4999   -6.1582   44.6526 C   0  0  0  0  0  0  0  0  0  0  0  0
   39.4441   -6.3099   43.6539 C   0  0  1  0  0  0  0  0  0  0  0  0
   39.1355   -6.1291   42.2755 O   0  0  0  0  0  0  0  0  0  0  0  0
   40.7594   -6.5660   44.0457 C   0  0  0  0  0  0  0  0  0  0  0  0
   39.2671   -7.2522   41.3523 C   0  0  0  0  0  0  0  0  0  0  0  0
   40.9304   -6.8654   45.3447 C   0  0  2  0  0  0  0  0  0  0  0  0
   40.0229   -6.7864   46.2097 C   0  0  0  0  0  0  0  0  0  0  0  0
   42.3629   -7.1327   45.8512 O   0  0  0  0  0  0  0  0  0  0  0  0
   38.7706   -8.3083   41.5959 O   0  0  0  0  0  0  0  0  0  0  0  0
   39.6441   -6.7747   40.0621 C   0  0  2  0  0  0  0  0  0  0  0  0
   42.6853   -7.5797   47.0492 C   0  0  0  0  0  0  0  0  0  0  0  0
   38.9675   -6.4860   38.9573 C   0  0  0  0  0  0  0  0  0  0  0  0
   40.9807   -7.4238   39.5638 N   0  0  0  0  0  0  0  0  0  0  0  0
   41.3423   -7.0699   38.3845 C   0  0  2  0  0  0  0  0  0  0  0  0
   39.8022   -6.8293   37.7464 C   0  0  0  0  0  0  0  0  0  0  0  0
   41.0837   -8.8581   40.0410 C   0  0  0  0  0  0  0  0  0  0  0  0
   42.1833   -7.8745   37.6816 O   0  0  0  0  0  0  0  0  0  0  0  0
  1  2  1  0
  2  3  1  0
  3  4  1  6
  3  5  1  0
  4  6  1  0
  5  7  1  0
  1  8  1  0
  7  8  1  0
  7  9  1  1
  6 10  2  0
 11  6  1  1
  9 12  1  0
 11 13  1  0
 11 14  1  0
 14 15  1  0
 13 16  1  0
 15 16  1  0
 14 17  1  0
 15 18  1  6
M  END
$$$$
48
     RDKit          3D

 18 20  0  0  0  0  0  0  0  0999 V2000
   39.0195   -6.2743   45.8579 C   0  0  0  0  0  0  0  0  0  0  0  0
   40.1440   -6.8196   45.9549 C   0  0  0  0  0  0  0  0  0  0  0  0
   38.5322   -6.2554   44.7421 C   0  0  0  0  0  0  0  0  0  0  0  0
   40.9376   -7.2789   44.9792 C   0  0  1  0  0  0  0  0  0  0  0  0
   39.1382   -6.5790   43.6747 C   0  0  0  0  0  0  0  0  0  0  0  0
   40.4712   -7.1800   43.8768 C   0  0  1  0  0  0  0  0  0  0  0  0
   42.4167   -7.8434   45.2760 C   0  0  0  0  0  0  0  0  0  0  0  0
   42.7173   -8.2303   46.3083 O   0  0  0  0  0  0  0  0  0  0  0  0
   43.2856   -7.4069   44.2717 N   0  0  0  0  0  0  0  0  0  0  0  0
   41.3685   -7.3107   42.6666 N   0  0  0  0  0  0  0  0  0  0  0  0
   42.7853   -7.4323   42.9382 C   0  0  2  0  0  0  0  0  0  0  0  0
   43.7692   -7.7310   41.8828 C   0  0  1  0  0  0  0  0  0  0  0  0
   43.1909   -7.9436   40.6333 C   0  0  0  0  0  0  0  0  0  0  0  0
   44.8409   -6.7540   41.7963 C   0  0  1  0  0  0  0  0  0  0  0  0
   45.3952   -6.2009   42.9469 C   0  0  0  0  0  0  0  0  0  0  0  0
   45.8560   -7.1830   40.8008 C   0  0  0  0  0  0  0  0  0  0  0  0
   45.3407   -7.7182   39.5424 C   0  0  0  0  0  0  0  0  0  0  0  0
   44.0337   -8.2546   39.4764 C   0  0  0  0  0  0  0  0  0  0  0  0
  1  2  1  0
  1  3  1  0
  4  2  1  6
  3  5  1  0
  4  6  1  0
  6  5  1  1
  4  7  1  0
  7  8  2  0
  7  9  1  0
  6 10  1  0
 11  9  1  1
 10 11  1  0
 11 12  1  0
 12 13  1  6
 12 14  1  0
 14 15  1  1
 14 16  1  0
 16 17  1  0
 13 18  1  0
 17 18  1  0
M  END
$$$$
49
     RDKit          3D

 18 19  0  0  0  0  0  0  0  0999 V2000
   39.0195   -6.2743   45.8579 C   0  0  0  0  0  0  0  0  0  0  0  0
   38.5836   -6.0987   44.6776 C   0  0  0  0  0  0  0  0  0  0  0  0
   40.3654   -6.4925   46.0543 C   0  0  0  0  0  0  0  0  0  0  0  0
   39.2374   -6.3650   43.6879 C   0  0  0  0  0  0  0  0  0  0  0  0
   40.4437   -6.7429   43.7429 C   0  0  0  0  0  0  0  0  0  0  0  0
   41.1294   -6.8330   44.9817 C   0  0  2  0  0  0  0  0  0  0  0  0
   42.5883   -7.3381   45.1839 C   0  0  0  0  0  0  0  0  0  0  0  0
   41.4002   -7.1345   42.5257 C   0  0  1  0  0  0  0  0  0  0  0  0
   43.2116   -7.6975   43.9672 N   0  0  0  0  0  0  0  0  0  0  0  0
   44.5382   -8.1201   44.1434 C   0  0  0  0  0  0  0  0  0  0  0  0
   42.6690   -7.5895   42.7630 C   0  0  0  0  0  0  0  0  0  0  0  0
   40.7930   -7.1553   41.2373 N   0  0  0  0  0  0  0  0  0  0  0  0
   39.8196   -6.5597   40.7598 O   0  0  0  0  0  0  0  0  0  0  0  0
   45.5266   -7.2072   44.6270 C   0  0  0  0  0  0  0  0  0  0  0  0
   43.1222   -7.4441   46.3601 O   0  0  0  0  0  0  0  0  0  0  0  0
   44.9522   -9.3032   43.7333 O   0  0  0  0  0  0  0  0  0  0  0  0
   45.5665   -6.2115   45.2300 O   0  0  0  0  0  0  0  0  0  0  0  0
   46.8780   -7.6589   44.1069 C   0  0  0  0  0  0  0  0  0  0  0  0
  1  2  1  0
  1  3  1  0
  2  4  1  0
  4  5  1  0
  6  3  1  1
  5  6  1  0
  6  7  1  0
  5  8  1  0
  7  9  1  0
  9 10  1  0
  8 11  1  0
  9 11  1  0
  8 12  1  1
 12 13  2  0
 10 14  1  0
  7 15  2  0
 10 16  2  0
 14 17  1  0
 14 18  2  0
M  END
$$$$
5
     RDKit          3D

 15 17  0  0  0  0  0  0  0  0999 V2000
   39.0195   -6.2743   45.8579 C   0  0  0  0  0  0  0  0  0  0  0  0
   38.5836   -6.0987   44.6776 C   0  0  0  0  0  0  0  0  0  0  0  0
   39.3190   -6.2929   43.5245 C   0  0  2  0  0  0  0  0  0  0  0  0
   40.2590   -6.8114   45.9323 C   0  0  0  0  0  0  0  0  0  0  0  0
   38.7628   -6.1563   42.1764 O   0  0  0  0  0  0  0  0  0  0  0  0
   39.5899   -6.8322   41.2761 C   0  0  2  0  0  0  0  0  0  0  0  0
   41.0870   -7.1398   44.9255 C   0  0  0  0  0  0  0  0  0  0  0  0
   40.5875   -6.9077   43.6968 C   0  0  2  0  0  0  0  0  0  0  0  0
   41.3878   -7.2276   42.5501 N   0  0  0  0  0  0  0  0  0  0  0  0
   40.8495   -7.1908   41.3436 C   0  0  1  0  0  0  0  0  0  0  0  0
   38.9225   -7.0213   39.9553 O   0  0  0  0  0  0  0  0  0  0  0  0
   39.9331   -7.1305   38.9094 C   0  0  2  0  0  0  0  0  0  0  0  0
   39.4352   -7.0350   37.6051 C   0  0  0  0  0  0  0  0  0  0  0  0
   39.4240   -5.7088   37.1051 O   0  0  0  0  0  0  0  0  0  0  0  0
   40.9436   -7.4377   39.8820 C   0  0  0  0  0  0  0  0  0  0  0  0
  1  2  1  0
  3  2  1  1
  1  4  1  0
  3  5  1  0
  6  5  1  6
  4  7  1  0
  3  8  1  0
  8  7  1  1
  8  9  1  0
  6 10  1  0
  9 10  1  0
  6 11  1  0
 11 12  1  0
 12 13  1  6
 13 14  1  0
 10 15  1  1
 12 15  1  0
M  END
$$$$
50
     RDKit          3D

 18 19  0  0  0  0  0  0  0  0999 V2000
   39.0195   -6.2743   45.8579 C   0  0  0  0  0  0  0  0  0  0  0  0
   40.1440   -6.8196   45.9549 C   0  0  0  0  0  0  0  0  0  0  0  0
   40.9150   -7.1632   44.8946 C   0  0  1  0  0  0  0  0  0  0  0  0
   38.6129   -6.0378   44.5493 C   0  0  0  0  0  0  0  0  0  0  0  0
   39.3003   -6.3710   43.4444 C   0  0  0  0  0  0  0  0  0  0  0  0
   40.5309   -6.9955   43.6652 C   0  0  0  0  0  0  0  0  0  0  0  0
   41.4220   -7.4610   42.4240 C   0  0  0  0  0  0  0  0  0  0  0  0
   42.7073   -7.6125   42.6152 N   0  0  0  0  0  0  0  0  0  0  0  0
   43.4739   -7.1489   43.6137 C   0  0  0  0  0  0  0  0  0  0  0  0
   42.4571   -7.3052   45.1068 C   0  0  0  0  0  0  0  0  0  0  0  0
   44.6335   -6.9039   43.9198 O   0  0  0  0  0  0  0  0  0  0  0  0
   43.5258   -8.2831   41.5709 C   0  0  0  0  0  0  0  0  0  0  0  0
   40.7689   -7.7249   41.2570 O   0  0  0  0  0  0  0  0  0  0  0  0
   43.8954   -7.5486   40.3841 C   0  0  0  0  0  0  0  0  0  0  0  0
   45.3277   -7.3618   40.2464 C   0  0  0  0  0  0  0  0  0  0  0  0
   45.7714   -6.3952   39.3639 C   0  0  2  0  0  0  0  0  0  0  0  0
   44.9341   -6.2179   38.2905 O   0  0  0  0  0  0  0  0  0  0  0  0
   47.1568   -6.5682   38.9636 C   0  0  0  0  0  0  0  0  0  0  0  0
  1  2  1  0
  3  2  1  1
  1  4  1  0
  4  5  1  0
  3  6  1  0
  5  6  1  0
  6  7  1  0
  7  8  1  0
  8  9  1  0
  3 10  1  0
  9 10  1  0
  9 11  2  0
  8 12  1  0
  7 13  2  0
 12 14  1  0
 14 15  1  0
 15 16  1  0
 16 17  1  0
 16 18  1  6
M  END
$$$$
51
     RDKit          3D

 18 18  0  0  0  0  0  0  0  0999 V2000
   39.0195   -6.2743   45.8579 C   0  0  1  0  0  0  0  0  0  0  0  0
   38.5836   -6.0987   44.6776 C   0  0  2  0  0  0  0  0  0  0  0  0
   37.2514   -5.6858   44.4391 O   0  0  0  0  0  0  0  0  0  0  0  0
   38.2475   -6.3062   47.0572 O   0  0  0  0  0  0  0  0  0  0  0  0
   38.9008   -7.2849   43.7077 C   0  0  2  0  0  0  0  0  0  0  0  0
   40.3178   -7.5763   43.7933 O   0  0  0  0  0  0  0  0  0  0  0  0
   38.5929   -7.0722   42.2623 O   0  0  0  0  0  0  0  0  0  0  0  0
   39.9320   -7.5599   46.0149 C   0  0  1  0  0  0  0  0  0  0  0  0
   40.9294   -7.6250   44.9924 C   0  0  1  0  0  0  0  0  0  0  0  0
   40.2891   -7.9135   47.3530 O   0  0  0  0  0  0  0  0  0  0  0  0
   39.5753   -7.3908   41.3312 C   0  0  0  0  0  0  0  0  0  0  0  0
   41.8756   -8.7491   45.0496 C   0  0  0  0  0  0  0  0  0  0  0  0
   39.7501   -6.4800   40.2797 C   0  0  0  0  0  0  0  0  0  0  0  0
   43.2716   -8.3377   45.1321 O   0  0  0  0  0  0  0  0  0  0  0  0
   40.9082   -6.7710   39.5091 O   0  0  0  0  0  0  0  0  0  0  0  0
   43.7077   -7.2916   45.3169 C   0  0  0  0  0  0  0  0  0  0  0  0
   44.4313   -7.0882   46.5447 C   0  0  0  0  0  0  0  0  0  0  0  0
   43.8244   -6.4391   44.3451 O   0  0  0  0  0  0  0  0  0  0  0  0
  1  2  1  0
  2  3  1  1
  1  4  1  1
  2  5  1  0
  5  6  1  0
  5  7  1  6
  1  8  1  0
  6  9  1  0
  8  9  1  0
  8 10  1  1
  7 11  1  0
  9 12  1  6
 11 13  1  0
 12 14  1  0
 13 15  1  0
 14 16  1  0
 16 17  1  0
 16 18  2  0
M  END
$$$$
52
     RDKit          3D

 19 21  0  0  0  0  0  0  0  0999 V2000
   39.0195   -6.2743   45.8579 C   0  0  0  0  0  0  0  0  0  0  0  0
   40.1440   -6.8196   45.9549 C   0  0  2  0  0  0  0  0  0  0  0  0
   40.7984   -6.8027   47.2665 C   0  0  2  0  0  0  0  0  0  0  0  0
   40.9626   -7.2993   44.9142 C   0  0  0  0  0  0  0  0  0  0  0  0
   40.3782   -7.2696   43.6754 C   0  0  0  0  0  0  0  0  0  0  0  0
   40.2148   -6.2420   48.4331 O   0  0  0  0  0  0  0  0  0  0  0  0
   42.1314   -7.2831   47.4677 C   0  0  0  0  0  0  0  0  0  0  0  0
   42.7786   -7.8030   46.3085 C   0  0  0  0  0  0  0  0  0  0  0  0
   41.0327   -7.7423   42.5325 C   0  0  0  0  0  0  0  0  0  0  0  0
   42.2251   -7.8135   45.0886 C   0  0  0  0  0  0  0  0  0  0  0  0
   38.4065   -6.2712   44.5340 C   0  0  0  0  0  0  0  0  0  0  0  0
   40.4525   -7.6410   41.2484 C   0  0  2  0  0  0  0  0  0  0  0  0
   41.1463   -8.0798   40.0507 O   0  0  0  0  0  0  0  0  0  0  0  0
   39.0432   -6.7882   43.4031 C   0  0  0  0  0  0  0  0  0  0  0  0
   40.8385   -7.6275   38.8201 C   0  0  0  0  0  0  0  0  0  0  0  0
   40.2761   -6.2837   38.7373 C   0  0  0  0  0  0  0  0  0  0  0  0
   39.6326   -5.8310   39.9457 O   0  0  0  0  0  0  0  0  0  0  0  0
   40.2045   -6.1350   41.1067 C   0  0  0  0  0  0  0  0  0  0  0  0
   40.1257   -5.6312   37.7068 C   0  0  0  0  0  0  0  0  0  0  0  0
  2  1  1  6
  2  3  1  0
  2  4  1  0
  4  5  1  0
  3  6  1  6
  3  7  1  0
  7  8  1  0
  5  9  1  0
  4 10  1  0
  8 10  1  0
  1 11  1  0
 12  9  1  1
 12 13  1  0
  5 14  1  0
 11 14  1  0
 13 15  1  0
 15 16  1  0
 16 17  1  0
 12 18  1  0
 17 18  1  0
 16 19  2  0
M  END
$$$$
53
     RDKit          3D

 19 20  0  0  0  0  0  0  0  0999 V2000
   39.0195   -6.2743   45.8579 C   0  0  0  0  0  0  0  0  0  0  0  0
   38.5836   -6.0987   44.6776 C   0  0  0  0  0  0  0  0  0  0  0  0
   39.3190   -6.2929   43.5245 C   0  0  0  0  0  0  0  0  0  0  0  0
   40.3574   -7.0299   43.7556 C   0  0  2  0  0  0  0  0  0  0  0  0
   40.2473   -6.9027   46.0510 C   0  0  0  0  0  0  0  0  0  0  0  0
   40.9473   -7.2215   45.0676 C   0  0  1  0  0  0  0  0  0  0  0  0
   41.2884   -7.4133   42.5977 C   0  0  1  0  0  0  0  0  0  0  0  0
   42.6212   -7.6054   42.7177 N   0  0  0  0  0  0  0  0  0  0  0  0
   43.4223   -7.1361   43.6714 C   0  0  0  0  0  0  0  0  0  0  0  0
   40.6845   -8.2848   41.5842 O   0  0  0  0  0  0  0  0  0  0  0  0
   40.7376   -7.7705   40.3917 C   0  0  0  0  0  0  0  0  0  0  0  0
   39.7375   -7.0404   39.8477 C   0  0  0  0  0  0  0  0  0  0  0  0
   42.3158   -7.8535   45.3218 C   0  0  0  0  0  0  0  0  0  0  0  0
   38.6264   -7.4190   40.0275 O   0  0  0  0  0  0  0  0  0  0  0  0
   39.9580   -5.8122   39.3734 N   0  0  0  0  0  0  0  0  0  0  0  0
   40.5025   -5.5995   38.0625 C   0  0  0  0  0  0  0  0  0  0  0  0
   44.4603   -6.6515   43.9512 O   0  0  0  0  0  0  0  0  0  0  0  0
   40.1274   -4.3973   37.4722 C   0  0  0  0  0  0  0  0  0  0  0  0
   41.2680   -6.4746   37.5329 O   0  0  0  0  0  0  0  0  0  0  0  0
  1  2  1  0
  2  3  1  0
  4  3  1  6
  1  5  1  0
  4  6  1  0
  6  5  1  1
  4  7  1  0
  7  8  1  0
  8  9  1  0
  7 10  1  1
 10 11  1  0
 11 12  1  0
  6 13  1  0
  9 13  1  0
 12 14  2  0
 12 15  1  0
 15 16  1  0
  9 17  2  0
 16 18  1  0
 16 19  2  0
M  END
$$$$
54
     RDKit          3D

 19 20  0  0  0  0  0  0  0  0999 V2000
   39.9370   -5.0356   38.7551 O   0  0  0  0  0  0  0  0  0  0  0  0
   40.1679   -5.7768   38.0002 C   0  0  0  0  0  0  0  0  0  0  0  0
   40.8883   -6.9816   38.2343 C   0  0  0  0  0  0  0  0  0  0  0  0
   41.2062   -7.1545   39.6456 N   0  0  0  0  0  0  0  0  0  0  0  0
   40.4109   -7.3242   40.7227 C   0  0  0  0  0  0  0  0  0  0  0  0
   40.9990   -7.3076   41.9682 C   0  0  2  0  0  0  0  0  0  0  0  0
   40.3645   -6.8414   43.0958 C   0  0  0  0  0  0  0  0  0  0  0  0
   42.3517   -7.5210   42.0279 N   0  0  0  0  0  0  0  0  0  0  0  0
   39.8285   -5.6186   36.7039 O   0  0  0  0  0  0  0  0  0  0  0  0
   42.9625   -7.5682   43.2647 C   0  0  0  0  0  0  0  0  0  0  0  0
   42.3208   -7.2114   44.4252 C   0  0  1  0  0  0  0  0  0  0  0  0
   39.2629   -7.8770   40.5855 O   0  0  0  0  0  0  0  0  0  0  0  0
   40.9496   -6.8723   44.2717 C   0  0  0  0  0  0  0  0  0  0  0  0
   43.0306   -7.3704   45.6765 C   0  0  0  0  0  0  0  0  0  0  0  0
   42.3234   -7.3606   46.8639 C   0  0  0  0  0  0  0  0  0  0  0  0
   42.9851   -7.5213   48.1712 C   0  0  0  0  0  0  0  0  0  0  0  0
   44.4156   -7.7786   45.6336 C   0  0  0  0  0  0  0  0  0  0  0  0
   45.1029   -7.8770   46.9552 C   0  0  0  0  0  0  0  0  0  0  0  0
   44.3729   -7.7611   48.0417 C   0  0  0  0  0  0  0  0  0  0  0  0
  1  2  1  0
  2  3  1  0
  3  4  1  0
  4  5  1  0
  6  5  1  6
  6  7  1  0
  6  8  1  0
  2  9  2  0
  8 10  1  0
 10 11  1  0
  5 12  2  0
  7 13  1  0
 11 13  1  0
 11 14  1  1
 14 15  2  0
 15 16  1  0
 14 17  1  0
 17 18  2  0
 16 19  2  0
 18 19  1  0
M  END
$$$$
55
     RDKit          3D

 19 19  0  0  0  0  0  0  0  0999 V2000
   39.9370   -5.0356   38.7551 O   0  0  0  0  0  0  0  0  0  0  0  0
   40.1679   -5.7768   38.0002 C   0  0  0  0  0  0  0  0  0  0  0  0
   40.9030   -6.9573   38.2045 N   0  0  0  0  0  0  0  0  0  0  0  0
   39.6876   -5.7103   36.7153 O   0  0  0  0  0  0  0  0  0  0  0  0
   41.1725   -7.3484   39.4911 C   0  0  2  0  0  0  0  0  0  0  0  0
   42.5422   -7.8296   39.6618 C   0  0  0  0  0  0  0  0  0  0  0  0
   43.1882   -7.7610   40.9096 N   0  0  0  0  0  0  0  0  0  0  0  0
   40.2667   -7.7668   40.1113 O   0  0  0  0  0  0  0  0  0  0  0  0
   43.2579   -8.4189   38.6630 O   0  0  0  0  0  0  0  0  0  0  0  0
   44.5608   -8.1062   41.1985 C   0  0  1  0  0  0  0  0  0  0  0  0
   45.4579   -6.9331   40.8689 C   0  0  2  0  0  0  0  0  0  0  0  0
   44.9466   -9.0015   42.0862 C   0  0  2  0  0  0  0  0  0  0  0  0
   43.9832  -10.0111   42.4884 O   0  0  0  0  0  0  0  0  0  0  0  0
   45.9838   -8.6998   43.0165 C   0  0  0  0  0  0  0  0  0  0  0  0
   46.9726   -7.7555   42.5571 C   0  0  2  0  0  0  0  0  0  0  0  0
   48.2412   -7.5914   43.3193 O   0  0  0  0  0  0  0  0  0  0  0  0
   48.6918   -8.5207   44.0604 C   0  0  0  0  0  0  0  0  0  0  0  0
   45.2620   -6.0903   39.8200 O   0  0  0  0  0  0  0  0  0  0  0  0
   46.6295   -6.8092   41.6759 C   0  0  0  0  0  0  0  0  0  0  0  0
  1  2  2  0
  2  3  1  0
  2  4  1  0
  3  5  1  0
  5  6  1  0
  6  7  1  0
  5  8  1  6
  6  9  2  0
 10  7  1  1
 10 11  1  0
 10 12  1  0
 12 13  1  1
 12 14  1  0
 14 15  1  0
 15 16  1  1
 16 17  1  0
 11 18  1  6
 11 19  1  0
 15 19  1  0
M  END
$$$$
56
     RDKit          3D

 19 20  0  0  0  0  0  0  0  0999 V2000
   38.6889   -6.3536   45.8793 C   0  0  0  0  0  0  0  0  0  0  0  0
   38.4999   -6.1582   44.6526 C   0  0  0  0  0  0  0  0  0  0  0  0
   39.9152   -6.6374   46.1853 C   0  0  0  0  0  0  0  0  0  0  0  0
   40.9152   -6.9183   45.3691 C   0  0  0  0  0  0  0  0  0  0  0  0
   39.3429   -6.3701   43.7247 C   0  0  0  0  0  0  0  0  0  0  0  0
   40.6824   -6.8389   44.1836 C   0  0  0  0  0  0  0  0  0  0  0  0
   41.7708   -7.1308   43.0520 C   0  0  1  0  0  0  0  0  0  0  0  0
   43.0155   -6.8981   43.3425 N   0  0  0  0  0  0  0  0  0  0  0  0
   41.6553   -8.1347   42.0575 O   0  0  0  0  0  0  0  0  0  0  0  0
   43.9137   -7.3458   42.3908 C   0  0  1  0  0  0  0  0  0  0  0  0
   42.9345   -8.0970   41.4902 C   0  0  0  0  0  0  0  0  0  0  0  0
   43.1017   -8.6331   40.4809 O   0  0  0  0  0  0  0  0  0  0  0  0
   45.2283   -7.1284   42.2538 C   0  0  1  0  0  0  0  0  0  0  0  0
   45.7999   -7.0837   41.0170 C   0  0  0  0  0  0  0  0  0  0  0  0
   45.2208   -6.6873   39.7869 C   0  0  0  0  0  0  0  0  0  0  0  0
   45.9217   -6.3979   38.6191 C   0  0  0  0  0  0  0  0  0  0  0  0
   45.4914   -6.7291   37.4465 O   0  0  0  0  0  0  0  0  0  0  0  0
   47.1048   -5.7275   38.8030 O   0  0  0  0  0  0  0  0  0  0  0  0
   45.7940   -6.5133   43.3215 C   0  0  0  0  0  0  0  0  0  0  0  0
  1  2  1  0
  1  3  1  0
  3  4  1  0
  2  5  1  0
  4  6  1  0
  5  6  1  0
  7  6  1  1
  7  8  1  0
  7  9  1  0
 10  8  1  6
  9 11  1  0
 10 11  1  0
 11 12  2  0
 10 13  1  0
 13 14  1  0
 14 15  1  0
 15 16  1  0
 16 17  2  0
 16 18  1  0
 13 19  1  6
M  END
$$$$
57
     RDKit          3D

 19 19  0  0  0  0  0  0  0  0999 V2000
   39.9370   -5.0356   38.7551 O   0  0  0  0  0  0  0  0  0  0  0  0
   40.1031   -6.2899   38.5352 P   0  0  2  0  0  0  0  0  0  0  0  0
   39.9031   -7.2688   39.5470 O   0  0  0  0  0  0  0  0  0  0  0  0
   41.5300   -6.8330   38.0183 O   0  0  0  0  0  0  0  0  0  0  0  0
   39.1728   -7.1172   37.4707 O   0  0  0  0  0  0  0  0  0  0  0  0
   42.3233   -7.9284   38.5322 C   0  0  0  0  0  0  0  0  0  0  0  0
   39.5368   -6.7801   41.0183 C   0  0  0  0  0  0  0  0  0  0  0  0
   39.9410   -7.6628   42.1363 C   0  0  0  0  0  0  0  0  0  0  0  0
   43.7765   -7.5188   38.5377 C   0  0  0  0  0  0  0  0  0  0  0  0
   44.1306   -6.7338   39.6986 N   0  0  0  0  0  0  0  0  0  0  0  0
   45.4802   -6.4485   39.9468 C   0  0  1  0  0  0  0  0  0  0  0  0
   39.8947   -7.0240   43.3383 O   0  0  0  0  0  0  0  0  0  0  0  0
   39.4061   -7.4754   44.4144 C   0  0  0  0  0  0  0  0  0  0  0  0
   39.1960   -6.5925   45.5488 C   0  0  0  0  0  0  0  0  0  0  0  0
   45.9397   -6.4348   41.0908 N   0  0  0  0  0  0  0  0  0  0  0  0
   46.4027   -6.5980   38.8163 C   0  0  0  0  0  0  0  0  0  0  0  0
   47.3995   -6.3561   41.1039 C   0  0  0  0  0  0  0  0  0  0  0  0
   37.9083   -6.3997   45.8824 O   0  0  0  0  0  0  0  0  0  0  0  0
   47.6981   -6.4920   39.6171 N   0  0  0  0  0  0  0  0  0  0  0  0
  2  1  1  1
  2  3  1  0
  2  4  1  0
  2  5  2  0
  4  6  1  0
  3  7  1  0
  7  8  1  0
  6  9  1  0
  9 10  1  0
 11 10  1  1
  8 12  1  0
 12 13  1  0
 13 14  1  0
 11 15  1  0
 11 16  1  0
 15 17  1  0
 14 18  1  0
 16 19  1  0
 17 19  1  0
M  END
$$$$
58
     RDKit          3D

 19 20  0  0  0  0  0  0  0  0999 V2000
   38.6889   -6.3536   45.8793 C   0  0  0  0  0  0  0  0  0  0  0  0
   38.4999   -6.1582   44.6526 C   0  0  0  0  0  0  0  0  0  0  0  0
   39.9152   -6.6374   46.1853 C   0  0  0  0  0  0  0  0  0  0  0  0
   40.9152   -6.9183   45.3691 C   0  0  0  0  0  0  0  0  0  0  0  0
   39.3429   -6.3701   43.7247 C   0  0  0  0  0  0  0  0  0  0  0  0
   40.6824   -6.8389   44.1836 C   0  0  0  0  0  0  0  0  0  0  0  0
   41.7708   -7.1308   43.0520 C   0  0  0  0  0  0  0  0  0  0  0  0
   41.3467   -7.5157   41.8182 N   0  0  0  0  0  0  0  0  0  0  0  0
   40.3757   -7.0369   40.9969 C   0  0  0  0  0  0  0  0  0  0  0  0
   42.9624   -7.0921   43.4497 O   0  0  0  0  0  0  0  0  0  0  0  0
   42.1221   -8.6205   41.0670 C   0  0  0  0  0  0  0  0  0  0  0  0
   39.4243   -6.3022   41.4087 O   0  0  0  0  0  0  0  0  0  0  0  0
   40.4673   -7.4587   39.5422 C   0  0  1  0  0  0  0  0  0  0  0  0
   41.5485   -8.5655   39.6880 C   0  0  0  0  0  0  0  0  0  0  0  0
   39.6589   -6.9748   38.5717 C   0  0  0  0  0  0  0  0  0  0  0  0
   39.1217   -7.9395   37.8147 O   0  0  0  0  0  0  0  0  0  0  0  0
   39.4241   -5.7286   38.3596 N   0  0  0  0  0  0  0  0  0  0  0  0
   38.8810   -5.3014   37.0744 C   0  0  0  0  0  0  0  0  0  0  0  0
   39.8200   -4.4891   36.3132 C   0  0  0  0  0  0  0  0  0  0  0  0
  1  2  1  0
  1  3  1  0
  3  4  1  0
  2  5  1  0
  4  6  1  0
  5  6  1  0
  6  7  1  0
  7  8  1  0
  8  9  1  0
  7 10  2  0
  8 11  1  0
  9 12  2  0
  9 13  1  0
 11 14  1  0
 13 14  1  0
 13 15  1  1
 15 16  2  0
 15 17  1  0
 17 18  1  0
 18 19  1  0
M  END
$$$$
59
     RDKit          3D

 19 19  0  0  0  0  0  0  0  0999 V2000
   39.9370   -5.0356   38.7551 O   0  0  0  0  0  0  0  0  0  0  0  0
   40.1679   -5.7768   38.0002 C   0  0  0  0  0  0  0  0  0  0  0  0
   40.8883   -6.9816   38.2343 C   0  0  0  0  0  0  0  0  0  0  0  0
   39.7877   -5.6592   36.7657 O   0  0  0  0  0  0  0  0  0  0  0  0
   41.3192   -7.2079   39.6210 N   0  0  0  0  0  0  0  0  0  0  0  0
   40.5190   -7.5054   40.6719 C   0  0  1  0  0  0  0  0  0  0  0  0
   41.1823   -7.4816   41.9321 C   0  0  0  0  0  0  0  0  0  0  0  0
   40.6024   -6.9485   43.0594 C   0  0  0  0  0  0  0  0  0  0  0  0
   39.2297   -6.6322   43.0236 C   0  0  1  0  0  0  0  0  0  0  0  0
   41.4239   -6.7760   44.2834 C   0  0  0  0  0  0  0  0  0  0  0  0
   38.5051   -6.8698   41.8671 C   0  0  0  0  0  0  0  0  0  0  0  0
   38.2571   -6.1249   44.2783 C   0  0  0  0  0  0  0  0  0  0  0  0
   39.1885   -7.1995   40.7157 C   0  0  0  0  0  0  0  0  0  0  0  0
   40.7339   -6.8711   45.5195 O   0  0  0  0  0  0  0  0  0  0  0  0
   42.4109   -8.3431   39.5091 C   0  0  0  0  0  0  0  0  0  0  0  0
   42.5673   -7.3245   44.4303 O   0  0  0  0  0  0  0  0  0  0  0  0
   43.7663   -7.6843   39.4889 C   0  0  0  0  0  0  0  0  0  0  0  0
   44.0566   -6.7078   39.1232 O   0  0  0  0  0  0  0  0  0  0  0  0
   44.7274   -8.5745   39.8811 O   0  0  0  0  0  0  0  0  0  0  0  0
  1  2  1  0
  2  3  1  0
  2  4  2  0
  3  5  1  0
  6  5  1  6
  6  7  1  0
  7  8  1  0
  8  9  1  0
  8 10  1  0
  9 11  1  0
  9 12  1  1
  6 13  1  0
 11 13  1  0
 10 14  1  0
  5 15  1  0
 10 16  2  0
 15 17  1  0
 17 18  2  0
 17 19  1  0
M  END
$$$$
6
     RDKit          3D

 15 16  0  0  0  0  0  0  0  0999 V2000
   39.0195   -6.2743   45.8579 C   0  0  0  0  0  0  0  0  0  0  0  0
   38.5836   -6.0987   44.6776 C   0  0  0  0  0  0  0  0  0  0  0  0
   39.3190   -6.2929   43.5245 C   0  0  2  0  0  0  0  0  0  0  0  0
   40.3059   -6.8187   46.0879 C   0  0  0  0  0  0  0  0  0  0  0  0
   41.0032   -7.0585   45.0128 C   0  0  2  0  0  0  0  0  0  0  0  0
   42.4117   -7.5866   45.1692 N   0  0  0  0  0  0  0  0  0  0  0  0
   38.8654   -6.1989   42.2441 O   0  0  0  0  0  0  0  0  0  0  0  0
   43.2143   -7.5692   44.0089 C   0  0  0  0  0  0  0  0  0  0  0  0
   42.6140   -7.1606   42.8767 N   0  0  0  0  0  0  0  0  0  0  0  0
   40.6648   -6.7116   43.8266 C   0  0  1  0  0  0  0  0  0  0  0  0
   41.4025   -6.8897   42.6118 C   0  0  0  0  0  0  0  0  0  0  0  0
   44.5169   -8.0082   44.2304 N   0  0  0  0  0  0  0  0  0  0  0  0
   45.5239   -6.9634   44.3458 C   0  0  0  0  0  0  0  0  0  0  0  0
   45.4838   -5.8329   44.1401 O   0  0  0  0  0  0  0  0  0  0  0  0
   46.9660   -7.5643   44.5120 C   0  0  0  0  0  0  0  0  0  0  0  0
  1  2  1  0
  2  3  1  0
  1  4  1  0
  5  4  1  1
  5  6  1  0
  3  7  1  6
  6  8  1  0
  8  9  1  0
  3 10  1  0
  5 10  1  0
  9 11  1  0
 10 11  1  6
  8 12  1  0
 12 13  1  0
 13 14  2  0
 13 15  1  0
M  END
$$$$
60
     RDKit          3D

 19 20  0  0  0  0  0  0  0  0999 V2000
   38.6889   -6.3536   45.8793 C   0  0  0  0  0  0  0  0  0  0  0  0
   38.4999   -6.1582   44.6526 C   0  0  0  0  0  0  0  0  0  0  0  0
   39.9152   -6.6374   46.1853 C   0  0  0  0  0  0  0  0  0  0  0  0
   40.9152   -6.9183   45.3691 C   0  0  0  0  0  0  0  0  0  0  0  0
   39.3429   -6.3701   43.7247 C   0  0  0  0  0  0  0  0  0  0  0  0
   40.6824   -6.8389   44.1836 C   0  0  0  0  0  0  0  0  0  0  0  0
   41.7708   -7.1308   43.0520 C   0  0  1  0  0  0  0  0  0  0  0  0
   43.0155   -6.8981   43.3425 N   0  0  0  0  0  0  0  0  0  0  0  0
   41.6553   -8.1347   42.0575 O   0  0  0  0  0  0  0  0  0  0  0  0
   43.9137   -7.3458   42.3908 C   0  0  1  0  0  0  0  0  0  0  0  0
   42.9345   -8.0970   41.4902 C   0  0  0  0  0  0  0  0  0  0  0  0
   43.1017   -8.6331   40.4809 O   0  0  0  0  0  0  0  0  0  0  0  0
   45.2283   -7.1284   42.2538 C   0  0  2  0  0  0  0  0  0  0  0  0
   45.7999   -7.0837   41.0170 C   0  0  0  0  0  0  0  0  0  0  0  0
   45.2208   -6.6873   39.7869 C   0  0  0  0  0  0  0  0  0  0  0  0
   45.9217   -6.3979   38.6191 C   0  0  0  0  0  0  0  0  0  0  0  0
   45.9563   -7.0407   43.4335 C   0  0  0  0  0  0  0  0  0  0  0  0
   47.1744   -7.4575   43.5058 O   0  0  0  0  0  0  0  0  0  0  0  0
   45.5305   -6.3503   44.5773 O   0  0  0  0  0  0  0  0  0  0  0  0
  1  2  1  0
  1  3  1  0
  3  4  1  0
  2  5  1  0
  4  6  1  0
  5  6  1  0
  7  6  1  1
  7  8  1  0
  7  9  1  0
 10  8  1  6
  9 11  1  0
 10 11  1  0
 11 12  2  0
 10 13  1  0
 13 14  1  6
 14 15  1  0
 15 16  1  0
 13 17  1  0
 17 18  2  0
 17 19  1  0
M  END
$$$$
61
     RDKit          3D

 19 21  0  0  0  0  0  0  0  0999 V2000
   39.0195   -6.2743   45.8579 C   0  0  0  0  0  0  0  0  0  0  0  0
   38.5836   -6.0987   44.6776 C   0  0  0  0  0  0  0  0  0  0  0  0
   40.3654   -6.4925   46.0543 C   0  0  0  0  0  0  0  0  0  0  0  0
   39.2374   -6.3650   43.6879 C   0  0  0  0  0  0  0  0  0  0  0  0
   40.4437   -6.7429   43.7429 C   0  0  0  0  0  0  0  0  0  0  0  0
   41.1294   -6.8330   44.9817 C   0  0  2  0  0  0  0  0  0  0  0  0
   42.5883   -7.3381   45.1839 C   0  0  0  0  0  0  0  0  0  0  0  0
   41.4002   -7.1345   42.5257 C   0  0  1  0  0  0  0  0  0  0  0  0
   43.2116   -7.6975   43.9672 N   0  0  0  0  0  0  0  0  0  0  0  0
   44.5382   -8.1201   44.1434 C   0  0  0  0  0  0  0  0  0  0  0  0
   42.6690   -7.5895   42.7630 C   0  0  0  0  0  0  0  0  0  0  0  0
   40.7930   -7.1553   41.2373 N   0  0  0  0  0  0  0  0  0  0  0  0
   39.8196   -6.5597   40.7598 O   0  0  0  0  0  0  0  0  0  0  0  0
   45.5266   -7.2072   44.6270 C   0  0  0  0  0  0  0  0  0  0  0  0
   43.3131   -7.9541   41.5788 N   0  0  0  0  0  0  0  0  0  0  0  0
   44.6592   -8.3083   41.5334 C   0  0  0  0  0  0  0  0  0  0  0  0
   44.5948   -9.3753   44.9881 C   0  0  0  0  0  0  0  0  0  0  0  0
   45.1892   -8.5189   42.7455 C   0  0  0  0  0  0  0  0  0  0  0  0
   45.1706   -8.6181   40.3807 O   0  0  0  0  0  0  0  0  0  0  0  0
  1  2  1  0
  1  3  1  0
  2  4  1  0
  4  5  1  0
  6  3  1  1
  5  6  1  0
  6  7  1  0
  5  8  1  0
  7  9  1  0
  9 10  1  0
  8 11  1  0
  9 11  1  0
  8 12  1  1
 12 13  2  0
 10 14  1  0
 11 15  1  0
 15 16  1  0
 10 17  1  0
 10 18  1  0
 16 18  1  0
 16 19  2  0
M  END
$$$$
62
     RDKit          3D

 19 20  0  0  0  0  0  0  0  0999 V2000
   39.0195   -6.2743   45.8579 C   0  0  0  0  0  0  0  0  0  0  0  0
   38.5836   -6.0987   44.6776 C   0  0  0  0  0  0  0  0  0  0  0  0
   39.3190   -6.2929   43.5245 C   0  0  2  0  0  0  0  0  0  0  0  0
   40.2590   -6.8114   45.9323 C   0  0  0  0  0  0  0  0  0  0  0  0
   38.7628   -6.1563   42.1764 O   0  0  0  0  0  0  0  0  0  0  0  0
   39.5899   -6.8322   41.2761 C   0  0  0  0  0  0  0  0  0  0  0  0
   41.0870   -7.1398   44.9255 C   0  0  0  0  0  0  0  0  0  0  0  0
   40.5875   -6.9077   43.6968 C   0  0  2  0  0  0  0  0  0  0  0  0
   41.4988   -7.2788   42.5859 N   0  0  0  0  0  0  0  0  0  0  0  0
   42.6716   -7.6785   42.7530 C   0  0  0  0  0  0  0  0  0  0  0  0
   40.8334   -7.2441   41.3495 C   0  0  0  0  0  0  0  0  0  0  0  0
   43.7041   -7.0504   42.1209 N   0  0  0  0  0  0  0  0  0  0  0  0
   44.9690   -6.8990   42.4894 C   0  0  2  0  0  0  0  0  0  0  0  0
   43.0845   -8.5681   43.5769 O   0  0  0  0  0  0  0  0  0  0  0  0
   38.9559   -7.2944   40.0432 O   0  0  0  0  0  0  0  0  0  0  0  0
   45.3133   -5.7219   43.0451 C   0  0  0  0  0  0  0  0  0  0  0  0
   46.0617   -6.9259   41.3885 C   0  0  0  0  0  0  0  0  0  0  0  0
   45.8478   -7.0472   40.1926 O   0  0  0  0  0  0  0  0  0  0  0  0
   47.2133   -6.6630   41.6359 O   0  0  0  0  0  0  0  0  0  0  0  0
  1  2  1  0
  3  2  1  1
  1  4  1  0
  3  5  1  0
  5  6  1  0
  4  7  1  0
  3  8  1  0
  8  7  1  1
  8  9  1  0
  9 10  1  0
  6 11  1  0
  9 11  1  0
 10 12  1  0
 12 13  1  0
 10 14  2  0
  6 15  2  0
 13 16  1  6
 13 17  1  0
 17 18  2  0
 17 19  1  0
M  END
$$$$
63
     RDKit          3D

 19 19  0  0  0  0  0  0  0  0999 V2000
   39.9370   -5.0356   38.7551 O   0  0  0  0  0  0  0  0  0  0  0  0
   40.1679   -5.7768   38.0002 C   0  0  0  0  0  0  0  0  0  0  0  0
   40.9030   -6.9573   38.2045 N   0  0  0  0  0  0  0  0  0  0  0  0
   39.6876   -5.7103   36.7153 O   0  0  0  0  0  0  0  0  0  0  0  0
   41.1725   -7.3484   39.4911 C   0  0  2  0  0  0  0  0  0  0  0  0
   42.5422   -7.8296   39.6618 C   0  0  0  0  0  0  0  0  0  0  0  0
   43.1882   -7.7610   40.9096 N   0  0  0  0  0  0  0  0  0  0  0  0
   40.2667   -7.7668   40.1113 O   0  0  0  0  0  0  0  0  0  0  0  0
   43.2579   -8.4189   38.6630 O   0  0  0  0  0  0  0  0  0  0  0  0
   44.5608   -8.1062   41.1985 C   0  0  1  0  0  0  0  0  0  0  0  0
   45.4579   -6.9331   40.8689 C   0  0  2  0  0  0  0  0  0  0  0  0
   44.9466   -9.0015   42.0862 C   0  0  2  0  0  0  0  0  0  0  0  0
   43.9832  -10.0111   42.4884 O   0  0  0  0  0  0  0  0  0  0  0  0
   45.2975   -6.0494   39.8872 O   0  0  0  0  0  0  0  0  0  0  0  0
   46.8317   -7.1916   41.2587 O   0  0  0  0  0  0  0  0  0  0  0  0
   46.1844   -8.8968   42.6780 C   0  0  1  0  0  0  0  0  0  0  0  0
   46.5037   -9.9380   43.7141 O   0  0  0  0  0  0  0  0  0  0  0  0
   47.1549   -7.9376   42.1389 C   0  0  0  0  0  0  0  0  0  0  0  0
   48.4565   -8.0346   42.6978 O   0  0  0  0  0  0  0  0  0  0  0  0
  1  2  2  0
  2  3  1  0
  2  4  1  0
  3  5  1  0
  5  6  1  0
  6  7  1  0
  5  8  1  6
  6  9  2  0
 10  7  1  1
 10 11  1  0
 10 12  1  0
 12 13  1  1
 11 14  1  6
 11 15  1  0
 12 16  1  0
 16 17  1  6
 15 18  1  0
 16 18  1  0
 18 19  2  0
M  END
$$$$
64
     RDKit          3D

 19 20  0  0  0  0  0  0  0  0999 V2000
   39.9370   -5.0356   38.7551 O   0  0  0  0  0  0  0  0  0  0  0  0
   40.1679   -5.7768   38.0002 C   0  0  0  0  0  0  0  0  0  0  0  0
   40.8883   -6.9816   38.2343 C   0  0  0  0  0  0  0  0  0  0  0  0
   41.2062   -7.1545   39.6456 N   0  0  0  0  0  0  0  0  0  0  0  0
   40.4109   -7.3242   40.7227 C   0  0  0  0  0  0  0  0  0  0  0  0
   40.9990   -7.3076   41.9682 C   0  0  2  0  0  0  0  0  0  0  0  0
   40.3645   -6.8414   43.0958 C   0  0  0  0  0  0  0  0  0  0  0  0
   42.3517   -7.5210   42.0279 N   0  0  0  0  0  0  0  0  0  0  0  0
   39.8285   -5.6186   36.7039 O   0  0  0  0  0  0  0  0  0  0  0  0
   42.9625   -7.5682   43.2647 C   0  0  0  0  0  0  0  0  0  0  0  0
   42.3208   -7.2114   44.4252 C   0  0  1  0  0  0  0  0  0  0  0  0
   39.2629   -7.8770   40.5855 O   0  0  0  0  0  0  0  0  0  0  0  0
   40.9496   -6.8723   44.2717 C   0  0  0  0  0  0  0  0  0  0  0  0
   43.0306   -7.3704   45.6765 C   0  0  0  0  0  0  0  0  0  0  0  0
   42.3234   -7.3606   46.8639 C   0  0  0  0  0  0  0  0  0  0  0  0
   42.9851   -7.5213   48.1712 C   0  0  0  0  0  0  0  0  0  0  0  0
   44.4156   -7.7786   45.6336 C   0  0  0  0  0  0  0  0  0  0  0  0
   45.1029   -7.8770   46.9552 C   0  0  0  0  0  0  0  0  0  0  0  0
   44.3583   -7.7055   48.0036 N   0  0  0  0  0  0  0  0  0  0  0  0
  1  2  1  0
  2  3  1  0
  3  4  1  0
  4  5  1  0
  6  5  1  6
  6  7  1  0
  6  8  1  0
  2  9  2  0
  8 10  1  0
 10 11  1  0
  5 12  2  0
  7 13  1  0
 11 13  1  0
 11 14  1  1
 14 15  2  0
 15 16  1  0
 14 17  1  0
 17 18  1  0
 16 19  1  0
 18 19  1  0
M  END
$$$$
65
     RDKit          3D

 19 19  0  0  0  0  0  0  0  0999 V2000
   39.0195   -6.2743   45.8579 C   0  0  1  0  0  0  0  0  0  0  0  0
   38.5836   -6.0987   44.6776 C   0  0  2  0  0  0  0  0  0  0  0  0
   37.2514   -5.6858   44.4391 O   0  0  0  0  0  0  0  0  0  0  0  0
   38.2475   -6.3062   47.0572 O   0  0  0  0  0  0  0  0  0  0  0  0
   38.9008   -7.2849   43.7077 C   0  0  2  0  0  0  0  0  0  0  0  0
   40.3178   -7.5763   43.7933 O   0  0  0  0  0  0  0  0  0  0  0  0
   38.5929   -7.0722   42.2623 O   0  0  0  0  0  0  0  0  0  0  0  0
   39.9320   -7.5599   46.0149 C   0  0  1  0  0  0  0  0  0  0  0  0
   40.9294   -7.6250   44.9924 C   0  0  1  0  0  0  0  0  0  0  0  0
   40.2891   -7.9135   47.3530 O   0  0  0  0  0  0  0  0  0  0  0  0
   39.5753   -7.3908   41.3312 C   0  0  0  0  0  0  0  0  0  0  0  0
   41.8756   -8.7491   45.0496 C   0  0  0  0  0  0  0  0  0  0  0  0
   39.7501   -6.4800   40.2797 C   0  0  0  0  0  0  0  0  0  0  0  0
   38.8355   -6.2843   39.4176 O   0  0  0  0  0  0  0  0  0  0  0  0
   43.2605   -8.3508   45.0868 O   0  0  0  0  0  0  0  0  0  0  0  0
   43.6784   -7.2504   45.1712 C   0  0  0  0  0  0  0  0  0  0  0  0
   45.1728   -7.1063   44.8624 C   0  0  0  0  0  0  0  0  0  0  0  0
   45.4720   -6.5688   43.6700 O   0  0  0  0  0  0  0  0  0  0  0  0
   44.5037   -6.1162   42.9025 C   0  0  0  0  0  0  0  0  0  0  0  0
  1  2  1  0
  2  3  1  1
  1  4  1  1
  2  5  1  0
  5  6  1  0
  5  7  1  6
  1  8  1  0
  6  9  1  0
  8  9  1  0
  8 10  1  1
  7 11  1  0
  9 12  1  6
 11 13  1  0
 13 14  1  0
 12 15  1  0
 15 16  1  0
 16 17  1  0
 17 18  1  0
 18 19  1  0
M  END
$$$$
66
     RDKit          3D

 19 20  0  0  0  0  0  0  0  0999 V2000
   39.0195   -6.2743   45.8579 C   0  0  0  0  0  0  0  0  0  0  0  0
   38.5836   -6.0987   44.6776 C   0  0  0  0  0  0  0  0  0  0  0  0
   39.3190   -6.2929   43.5245 C   0  0  0  0  0  0  0  0  0  0  0  0
   40.5596   -6.9225   43.6725 C   0  0  1  0  0  0  0  0  0  0  0  0
   41.4005   -7.1649   42.5063 C   0  0  0  0  0  0  0  0  0  0  0  0
   41.1452   -7.0629   44.9453 C   0  0  1  0  0  0  0  0  0  0  0  0
   40.3417   -6.7974   46.0729 C   0  0  0  0  0  0  0  0  0  0  0  0
   40.7781   -7.2866   41.2256 N   0  0  0  0  0  0  0  0  0  0  0  0
   42.5841   -7.9162   42.4833 N   0  0  0  0  0  0  0  0  0  0  0  0
   43.4646   -8.0707   43.5523 C   0  0  1  0  0  0  0  0  0  0  0  0
   42.5182   -7.6913   45.2115 S   0  0  0  0  0  0  0  0  0  0  0  0
   39.7619   -6.6192   40.7951 O   0  0  0  0  0  0  0  0  0  0  0  0
   44.7169   -8.4715   43.6203 C   0  0  0  0  0  0  0  0  0  0  0  0
   45.7199   -7.5367   43.7871 C   0  0  0  0  0  0  0  0  0  0  0  0
   39.7515   -6.4744   39.4160 C   0  0  0  0  0  0  0  0  0  0  0  0
   40.2692   -5.3791   38.7677 C   0  0  0  0  0  0  0  0  0  0  0  0
   46.9745   -7.9647   43.8571 O   0  0  0  0  0  0  0  0  0  0  0  0
   45.4944   -6.2997   44.0265 N   0  0  0  0  0  0  0  0  0  0  0  0
   40.1889   -5.2437   37.4147 O   0  0  0  0  0  0  0  0  0  0  0  0
  1  2  1  0
  2  3  1  0
  4  3  1  6
  4  5  1  0
  4  6  1  0
  1  7  1  0
  6  7  1  1
  5  8  1  0
  5  9  2  0
  9 10  1  0
  6 11  1  0
 10 11  1  0
  8 12  1  0
 10 13  1  1
 13 14  1  0
 12 15  1  0
 15 16  1  0
 14 17  2  0
 14 18  1  0
 16 19  1  0
M  END
$$$$
67
     RDKit          3D

 19 20  0  0  0  0  0  0  0  0999 V2000
   39.9370   -5.0356   38.7551 O   0  0  0  0  0  0  0  0  0  0  0  0
   40.1679   -5.7768   38.0002 C   0  0  0  0  0  0  0  0  0  0  0  0
   40.8883   -6.9816   38.2343 C   0  0  0  0  0  0  0  0  0  0  0  0
   41.2062   -7.1545   39.6456 N   0  0  0  0  0  0  0  0  0  0  0  0
   40.4109   -7.3242   40.7227 C   0  0  0  0  0  0  0  0  0  0  0  0
   40.9990   -7.3076   41.9682 C   0  0  2  0  0  0  0  0  0  0  0  0
   40.3645   -6.8414   43.0958 C   0  0  0  0  0  0  0  0  0  0  0  0
   42.3517   -7.5210   42.0279 N   0  0  0  0  0  0  0  0  0  0  0  0
   39.8285   -5.6186   36.7039 O   0  0  0  0  0  0  0  0  0  0  0  0
   42.9625   -7.5682   43.2647 C   0  0  0  0  0  0  0  0  0  0  0  0
   42.3208   -7.2114   44.4252 C   0  0  1  0  0  0  0  0  0  0  0  0
   39.2629   -7.8770   40.5855 O   0  0  0  0  0  0  0  0  0  0  0  0
   40.9496   -6.8723   44.2717 C   0  0  0  0  0  0  0  0  0  0  0  0
   43.0306   -7.3704   45.6765 C   0  0  0  0  0  0  0  0  0  0  0  0
   42.3234   -7.3606   46.8639 C   0  0  0  0  0  0  0  0  0  0  0  0
   42.9851   -7.5213   48.1712 C   0  0  0  0  0  0  0  0  0  0  0  0
   44.4156   -7.7786   45.6336 C   0  0  0  0  0  0  0  0  0  0  0  0
   44.3680   -7.7940   48.1540 N   0  0  0  0  0  0  0  0  0  0  0  0
   45.0433   -7.8792   46.9844 C   0  0  0  0  0  0  0  0  0  0  0  0
  1  2  1  0
  2  3  1  0
  3  4  1  0
  4  5  1  0
  6  5  1  6
  6  7  1  0
  6  8  1  0
  2  9  2  0
  8 10  1  0
 10 11  1  0
  5 12  2  0
  7 13  1  0
 11 13  1  0
 11 14  1  1
 14 15  1  0
 15 16  2  0
 14 17  2  0
 16 18  1  0
 17 19  1  0
 18 19  2  0
M  END
$$$$
68
     RDKit          3D

 20 22  0  0  0  0  0  0  0  0999 V2000
   39.0195   -6.2743   45.8579 C   0  0  0  0  0  0  0  0  0  0  0  0
   38.5836   -6.0987   44.6776 C   0  0  0  0  0  0  0  0  0  0  0  0
   39.3190   -6.2929   43.5245 C   0  0  0  0  0  0  0  0  0  0  0  0
   40.5596   -6.9225   43.6725 C   0  0  0  0  0  0  0  0  0  0  0  0
   38.3064   -5.9838   47.0588 F   0  0  0  0  0  0  0  0  0  0  0  0
   40.3580   -6.8358   46.0261 C   0  0  0  0  0  0  0  0  0  0  0  0
   41.0931   -7.1000   44.9592 C   0  0  0  0  0  0  0  0  0  0  0  0
   41.3908   -7.2322   42.5257 N   0  0  0  0  0  0  0  0  0  0  0  0
   42.6801   -7.5670   42.6501 C   0  0  2  0  0  0  0  0  0  0  0  0
   40.7713   -7.3927   41.2310 C   0  0  0  0  0  0  0  0  0  0  0  0
   43.3290   -7.8724   41.4705 C   0  0  1  0  0  0  0  0  0  0  0  0
   43.6189   -7.8988   43.6498 C   0  0  0  0  0  0  0  0  0  0  0  0
   44.8995   -8.2602   43.5069 C   0  0  0  0  0  0  0  0  0  0  0  0
   39.7200   -6.8079   40.7594 O   0  0  0  0  0  0  0  0  0  0  0  0
   44.4833   -8.2465   41.3523 C   0  0  0  0  0  0  0  0  0  0  0  0
   45.4259   -8.4217   42.3093 C   0  0  0  0  0  0  0  0  0  0  0  0
   42.0655   -7.6424   40.6385 N   0  0  0  0  0  0  0  0  0  0  0  0
   42.1494   -7.9486   39.0918 C   0  0  0  0  0  0  0  0  0  0  0  0
   42.4811   -7.1523   38.3601 O   0  0  0  0  0  0  0  0  0  0  0  0
   41.3043   -9.0849   38.5856 C   0  0  0  0  0  0  0  0  0  0  0  0
  1  2  1  0
  2  3  1  0
  3  4  1  0
  1  5  1  0
  1  6  1  0
  4  7  1  0
  6  7  1  0
  4  8  1  0
  8  9  1  0
  8 10  1  0
  9 11  1  0
  9 12  1  1
 12 13  1  0
 10 14  2  0
 11 15  1  1
 13 16  1  0
 15 16  1  0
 10 17  1  0
 11 17  1  0
 17 18  1  0
 18 19  2  0
 18 20  1  0
M  END
$$$$
69
     RDKit          3D

 20 22  0  0  0  0  0  0  0  0999 V2000
   39.0195   -6.2743   45.8579 C   0  0  0  0  0  0  0  0  0  0  0  0
   40.1440   -6.8196   45.9549 C   0  0  0  0  0  0  0  0  0  0  0  0
   38.5322   -6.2554   44.7421 C   0  0  1  0  0  0  0  0  0  0  0  0
   37.1546   -5.6422   44.4641 N   0  0  0  0  0  0  0  0  0  0  0  0
   39.2133   -6.6567   43.5301 C   0  0  2  0  0  0  0  0  0  0  0  0
   38.5733   -6.5690   42.2078 O   0  0  0  0  0  0  0  0  0  0  0  0
   40.4591   -7.2191   43.7075 C   0  0  2  0  0  0  0  0  0  0  0  0
   39.4097   -7.0161   41.2609 C   0  0  1  0  0  0  0  0  0  0  0  0
   40.9977   -7.2558   45.0184 C   0  0  0  0  0  0  0  0  0  0  0  0
   42.3624   -7.6842   45.3031 C   0  0  0  0  0  0  0  0  0  0  0  0
   43.3128   -7.5827   44.3111 N   0  0  0  0  0  0  0  0  0  0  0  0
   43.1967   -6.9213   43.1685 C   0  0  1  0  0  0  0  0  0  0  0  0
   41.1743   -7.6629   42.4988 C   0  0  2  0  0  0  0  0  0  0  0  0
   44.4469   -6.5048   42.7316 N   0  0  0  0  0  0  0  0  0  0  0  0
   42.3344   -7.3047   42.1299 C   0  0  2  0  0  0  0  0  0  0  0  0
   40.3211   -8.0121   41.4030 C   0  0  0  0  0  0  0  0  0  0  0  0
   38.5653   -7.1730   39.9392 O   0  0  0  0  0  0  0  0  0  0  0  0
   45.5014   -6.0438   43.3831 C   0  0  0  0  0  0  0  0  0  0  0  0
   39.4376   -6.8899   38.7543 C   0  0  0  0  0  0  0  0  0  0  0  0
   42.9953   -7.9304   41.0705 N   0  0  0  0  0  0  0  0  0  0  0  0
  1  2  1  0
  1  3  1  0
  3  4  1  6
  3  5  1  0
  5  6  1  1
  5  7  1  0
  6  8  1  0
  2  9  1  0
  7  9  1  6
  9 10  1  0
 10 11  1  0
 11 12  1  0
  7 13  1  0
 12 14  1  6
 12 15  1  0
 13 15  1  0
  8 16  1  0
 13 16  1  6
  8 17  1  6
 14 18  1  0
 17 19  1  0
 15 20  1  1
M  END
$$$$
7
     RDKit          3D

 15 16  0  0  0  0  0  0  0  0999 V2000
   39.7682   -4.4958   38.4940 O   0  0  0  0  0  0  0  0  0  0  0  0
   39.9797   -5.7126   38.4574 C   0  0  0  0  0  0  0  0  0  0  0  0
   40.1615   -6.4260   39.6453 C   0  0  1  0  0  0  0  0  0  0  0  0
   39.1697   -6.5316   40.6613 O   0  0  0  0  0  0  0  0  0  0  0  0
   39.4726   -7.1423   41.8473 C   0  0  2  0  0  0  0  0  0  0  0  0
   39.4761   -6.5075   37.3796 O   0  0  0  0  0  0  0  0  0  0  0  0
   38.6737   -6.7113   42.8870 C   0  0  0  0  0  0  0  0  0  0  0  0
   40.6695   -7.8035   41.9977 C   0  0  1  0  0  0  0  0  0  0  0  0
   39.0143   -7.2199   44.2586 C   0  0  0  0  0  0  0  0  0  0  0  0
   40.9811   -8.3286   43.2984 C   0  0  0  0  0  0  0  0  0  0  0  0
   40.1424   -8.0286   44.4008 C   0  0  0  0  0  0  0  0  0  0  0  0
   40.5454   -8.6538   45.9478 Cl  0  0  0  0  0  0  0  0  0  0  0  0
   41.4828   -8.2222   40.9171 C   0  0  0  0  0  0  0  0  0  0  0  0
   42.4673   -8.9702   41.0095 O   0  0  0  0  0  0  0  0  0  0  0  0
   41.2972   -7.3902   39.7223 N   0  0  0  0  0  0  0  0  0  0  0  0
  1  2  1  0
  3  2  1  6
  3  4  1  0
  4  5  1  0
  2  6  2  0
  5  7  1  1
  5  8  1  0
  7  9  1  0
  8 10  1  1
  9 11  1  0
 10 11  1  0
 11 12  1  0
  8 13  1  0
 13 14  2  0
  3 15  1  0
 13 15  1  0
M  END
$$$$
70
     RDKit          3D

 20 23  0  0  0  0  0  0  0  0999 V2000
   38.6889   -6.3536   45.8793 C   0  0  0  0  0  0  0  0  0  0  0  0
   38.4999   -6.1582   44.6526 C   0  0  2  0  0  0  0  0  0  0  0  0
   40.0305   -6.5017   46.3332 C   0  0  1  0  0  0  0  0  0  0  0  0
   40.2685   -6.6031   47.8138 C   0  0  0  0  0  0  0  0  0  0  0  0
   37.1651   -5.9537   44.0291 C   0  0  0  0  0  0  0  0  0  0  0  0
   41.5687   -6.5163   48.3701 C   0  0  0  0  0  0  0  0  0  0  0  0
   42.6486   -6.6641   47.5352 C   0  0  2  0  0  0  0  0  0  0  0  0
   39.5632   -6.1801   43.6536 C   0  0  0  0  0  0  0  0  0  0  0  0
   42.5195   -6.9297   46.1362 C   0  0  0  0  0  0  0  0  0  0  0  0
   43.5855   -7.2783   45.3109 N   0  0  0  0  0  0  0  0  0  0  0  0
   41.1798   -6.8225   45.4911 C   0  0  2  0  0  0  0  0  0  0  0  0
   40.8617   -6.6196   44.0998 C   0  0  0  0  0  0  0  0  0  0  0  0
   43.6652   -7.5154   44.0420 C   0  0  0  0  0  0  0  0  0  0  0  0
   44.9159   -7.6689   43.5348 N   0  0  0  0  0  0  0  0  0  0  0  0
   46.0299   -7.4917   44.4301 C   0  0  1  0  0  0  0  0  0  0  0  0
   44.8447   -6.8817   46.0923 C   0  0  1  0  0  0  0  0  0  0  0  0
   47.3521   -7.7738   43.7424 C   0  0  0  0  0  0  0  0  0  0  0  0
   44.6956   -6.6438   47.3973 C   0  0  0  0  0  0  0  0  0  0  0  0
   46.0734   -6.8994   45.4483 N   0  0  0  0  0  0  0  0  0  0  0  0
   43.5787   -6.7333   48.1696 N   0  0  0  0  0  0  0  0  0  0  0  0
  1  2  1  0
  3  1  1  6
  3  4  1  0
  2  5  1  6
  4  6  1  0
  7  6  1  1
  2  8  1  0
  7  9  1  0
  9 10  1  0
  3 11  1  0
  9 11  1  0
  8 12  1  0
 11 12  1  6
 10 13  1  0
 13 14  1  0
 14 15  1  0
 10 16  1  0
 15 17  1  6
 16 18  1  1
 15 19  1  0
 16 19  1  0
  7 20  1  0
 18 20  1  0
M  END
$$$$
71
     RDKit          3D

 20 22  0  0  0  0  0  0  0  0999 V2000
   39.0195   -6.2743   45.8579 C   0  0  0  0  0  0  0  0  0  0  0  0
   38.5836   -6.0987   44.6776 C   0  0  0  0  0  0  0  0  0  0  0  0
   40.3654   -6.4925   46.0543 C   0  0  0  0  0  0  0  0  0  0  0  0
   39.2374   -6.3650   43.6879 C   0  0  0  0  0  0  0  0  0  0  0  0
   40.4437   -6.7429   43.7429 C   0  0  0  0  0  0  0  0  0  0  0  0
   41.1294   -6.8330   44.9817 C   0  0  2  0  0  0  0  0  0  0  0  0
   42.5883   -7.3381   45.1839 C   0  0  0  0  0  0  0  0  0  0  0  0
   41.4002   -7.1345   42.5257 C   0  0  1  0  0  0  0  0  0  0  0  0
   43.2116   -7.6975   43.9672 N   0  0  0  0  0  0  0  0  0  0  0  0
   44.5382   -8.1201   44.1434 C   0  0  2  0  0  0  0  0  0  0  0  0
   42.6690   -7.5895   42.7630 C   0  0  0  0  0  0  0  0  0  0  0  0
   40.7930   -7.1553   41.2373 N   0  0  0  0  0  0  0  0  0  0  0  0
   39.8196   -6.5597   40.7598 O   0  0  0  0  0  0  0  0  0  0  0  0
   45.5266   -7.2072   44.6270 C   0  0  0  0  0  0  0  0  0  0  0  0
   43.3131   -7.9541   41.5788 N   0  0  0  0  0  0  0  0  0  0  0  0
   44.6592   -8.3083   41.5334 C   0  0  2  0  0  0  0  0  0  0  0  0
   45.1986   -8.8058   42.9938 C   0  0  0  0  0  0  0  0  0  0  0  0
   45.5762   -7.3854   41.0431 C   0  0  0  0  0  0  0  0  0  0  0  0
   46.1234   -7.4312   39.9622 O   0  0  0  0  0  0  0  0  0  0  0  0
   45.8123   -6.1980   41.6808 O   0  0  0  0  0  0  0  0  0  0  0  0
  1  2  1  0
  1  3  1  0
  2  4  1  0
  4  5  1  0
  6  3  1  1
  5  6  1  0
  6  7  1  0
  5  8  1  0
  7  9  1  0
  9 10  1  0
  8 11  1  0
  9 11  1  0
  8 12  1  1
 12 13  2  0
 10 14  1  6
 11 15  1  0
 15 16  1  0
 10 17  1  0
 16 17  1  0
 16 18  1  1
 18 19  2  0
 18 20  1  0
M  END
$$$$
72
     RDKit          3D

 20 22  0  0  0  0  0  0  0  0999 V2000
   39.0195   -6.2743   45.8579 C   0  0  0  0  0  0  0  0  0  0  0  0
   38.5836   -6.0987   44.6776 C   0  0  0  0  0  0  0  0  0  0  0  0
   38.2313   -6.3106   46.9841 O   0  0  0  0  0  0  0  0  0  0  0  0
   40.3230   -7.0461   45.6936 C   0  0  0  0  0  0  0  0  0  0  0  0
   40.7580   -7.0612   44.5377 C   0  0  0  0  0  0  0  0  0  0  0  0
   39.1467   -6.2593   43.4609 C   0  0  0  0  0  0  0  0  0  0  0  0
   40.2929   -6.8275   43.4076 C   0  0  0  0  0  0  0  0  0  0  0  0
   41.0431   -7.1234   42.1906 C   0  0  0  0  0  0  0  0  0  0  0  0
   40.3788   -7.0244   40.9337 N   0  0  0  0  0  0  0  0  0  0  0  0
   42.2276   -7.7560   42.1069 N   0  0  0  0  0  0  0  0  0  0  0  0
   41.1171   -7.5340   39.8715 C   0  0  1  0  0  0  0  0  0  0  0  0
   40.9671   -7.5390   38.5290 C   0  0  1  0  0  0  0  0  0  0  0  0
   42.4436   -7.9906   40.7414 C   0  0  0  0  0  0  0  0  0  0  0  0
   43.5407   -8.5558   40.0349 C   0  0  0  0  0  0  0  0  0  0  0  0
   41.7979   -8.3967   37.8174 C   0  0  1  0  0  0  0  0  0  0  0  0
   39.7548   -6.9343   38.0314 C   0  0  0  0  0  0  0  0  0  0  0  0
   39.6856   -5.4961   38.1250 C   0  0  0  0  0  0  0  0  0  0  0  0
   41.8188   -8.7035   36.5326 O   0  0  0  0  0  0  0  0  0  0  0  0
   42.6650   -9.1810   35.8222 C   0  0  0  0  0  0  0  0  0  0  0  0
   43.1533   -8.8074   38.4688 C   0  0  0  0  0  0  0  0  0  0  0  0
  1  2  1  0
  1  3  1  0
  1  4  1  0
  4  5  1  0
  2  6  1  0
  5  7  1  0
  6  7  1  0
  7  8  1  0
  8  9  1  0
  8 10  2  0
 11  9  1  6
 11 12  1  0
 10 13  1  0
 11 13  1  0
 13 14  1  0
 12 15  1  0
 12 16  1  1
 16 17  1  0
 15 18  1  6
 18 19  1  0
 14 20  1  0
 15 20  1  0
M  END
$$$$
73
     RDKit          3D

 20 21  0  0  0  0  0  0  0  0999 V2000
   38.6889   -6.3536   45.8793 C   0  0  0  0  0  0  0  0  0  0  0  0
   38.4999   -6.1582   44.6526 C   0  0  0  0  0  0  0  0  0  0  0  0
   39.9152   -6.6374   46.1853 C   0  0  0  0  0  0  0  0  0  0  0  0
   40.9152   -6.9183   45.3691 C   0  0  0  0  0  0  0  0  0  0  0  0
   39.3429   -6.3701   43.7247 C   0  0  0  0  0  0  0  0  0  0  0  0
   40.6824   -6.8389   44.1836 C   0  0  0  0  0  0  0  0  0  0  0  0
   41.7708   -7.1308   43.0520 C   0  0  1  0  0  0  0  0  0  0  0  0
   43.0155   -6.8981   43.3425 N   0  0  0  0  0  0  0  0  0  0  0  0
   41.6553   -8.1347   42.0575 O   0  0  0  0  0  0  0  0  0  0  0  0
   43.9137   -7.3458   42.3908 C   0  0  1  0  0  0  0  0  0  0  0  0
   42.9345   -8.0970   41.4902 C   0  0  0  0  0  0  0  0  0  0  0  0
   43.1017   -8.6331   40.4809 O   0  0  0  0  0  0  0  0  0  0  0  0
   45.2283   -7.1284   42.2538 C   0  0  2  0  0  0  0  0  0  0  0  0
   45.7999   -7.0837   41.0170 C   0  0  0  0  0  0  0  0  0  0  0  0
   45.2208   -6.6873   39.7869 C   0  0  0  0  0  0  0  0  0  0  0  0
   45.9217   -6.3979   38.6191 C   0  0  0  0  0  0  0  0  0  0  0  0
   45.9563   -7.0407   43.4335 C   0  0  0  0  0  0  0  0  0  0  0  0
   45.4813   -6.6011   37.4202 O   0  0  0  0  0  0  0  0  0  0  0  0
   47.0706   -5.6538   38.9612 O   0  0  0  0  0  0  0  0  0  0  0  0
   46.2484   -6.7431   44.5382 N   0  0  0  0  0  0  0  0  0  0  0  0
  1  2  1  0
  1  3  1  0
  3  4  1  0
  2  5  1  0
  4  6  1  0
  5  6  1  0
  7  6  1  1
  7  8  1  0
  7  9  1  0
 10  8  1  6
  9 11  1  0
 10 11  1  0
 11 12  2  0
 10 13  1  0
 13 14  1  6
 14 15  1  0
 15 16  1  0
 13 17  1  0
 16 18  1  0
 16 19  2  0
 17 20  3  0
M  END
$$$$
74
     RDKit          3D

 20 22  0  0  0  0  0  0  0  0999 V2000
   39.0195   -6.2743   45.8579 C   0  0  0  0  0  0  0  0  0  0  0  0
   40.1440   -6.8196   45.9549 C   0  0  0  0  0  0  0  0  0  0  0  0
   38.5322   -6.2554   44.7421 C   0  0  0  0  0  0  0  0  0  0  0  0
   40.9376   -7.2789   44.9792 C   0  0  1  0  0  0  0  0  0  0  0  0
   39.1382   -6.5790   43.6747 C   0  0  0  0  0  0  0  0  0  0  0  0
   40.4712   -7.1800   43.8768 C   0  0  1  0  0  0  0  0  0  0  0  0
   42.4167   -7.8434   45.2760 C   0  0  0  0  0  0  0  0  0  0  0  0
   42.7173   -8.2303   46.3083 O   0  0  0  0  0  0  0  0  0  0  0  0
   43.2856   -7.4069   44.2717 N   0  0  0  0  0  0  0  0  0  0  0  0
   41.3685   -7.3107   42.6666 N   0  0  0  0  0  0  0  0  0  0  0  0
   42.7853   -7.4323   42.9382 C   0  0  2  0  0  0  0  0  0  0  0  0
   43.7692   -7.7310   41.8828 C   0  0  1  0  0  0  0  0  0  0  0  0
   43.1909   -7.9436   40.6333 C   0  0  0  0  0  0  0  0  0  0  0  0
   44.8409   -6.7540   41.7963 C   0  0  1  0  0  0  0  0  0  0  0  0
   45.3952   -6.2009   42.9469 C   0  0  0  0  0  0  0  0  0  0  0  0
   45.8560   -7.1830   40.8008 C   0  0  0  0  0  0  0  0  0  0  0  0
   45.3407   -7.7182   39.5424 C   0  0  0  0  0  0  0  0  0  0  0  0
   44.0947   -8.1251   39.4969 N   0  0  0  0  0  0  0  0  0  0  0  0
   46.1684   -7.7791   38.4492 O   0  0  0  0  0  0  0  0  0  0  0  0
   46.6152   -6.7975   37.7923 C   0  0  0  0  0  0  0  0  0  0  0  0
  1  2  1  0
  1  3  1  0
  4  2  1  6
  3  5  1  0
  4  6  1  0
  6  5  1  1
  4  7  1  0
  7  8  2  0
  7  9  1  0
  6 10  1  0
 11  9  1  1
 10 11  1  0
 11 12  1  0
 12 13  1  6
 12 14  1  0
 14 15  1  1
 14 16  1  0
 16 17  1  0
 13 18  1  0
 17 18  1  0
 17 19  1  0
 19 20  1  0
M  END
$$$$
75
     RDKit          3D

 20 22  0  0  0  0  0  0  0  0999 V2000
   39.0195   -6.2743   45.8579 C   0  0  0  0  0  0  0  0  0  0  0  0
   38.5836   -6.0987   44.6776 C   0  0  0  0  0  0  0  0  0  0  0  0
   40.3654   -6.4925   46.0543 C   0  0  0  0  0  0  0  0  0  0  0  0
   39.2374   -6.3650   43.6879 C   0  0  0  0  0  0  0  0  0  0  0  0
   40.4437   -6.7429   43.7429 C   0  0  0  0  0  0  0  0  0  0  0  0
   41.1294   -6.8330   44.9817 C   0  0  2  0  0  0  0  0  0  0  0  0
   42.5883   -7.3381   45.1839 C   0  0  0  0  0  0  0  0  0  0  0  0
   41.4002   -7.1345   42.5257 C   0  0  1  0  0  0  0  0  0  0  0  0
   43.2116   -7.6975   43.9672 N   0  0  0  0  0  0  0  0  0  0  0  0
   44.5382   -8.1201   44.1434 C   0  0  2  0  0  0  0  0  0  0  0  0
   42.6690   -7.5895   42.7630 C   0  0  0  0  0  0  0  0  0  0  0  0
   40.7930   -7.1553   41.2373 N   0  0  0  0  0  0  0  0  0  0  0  0
   39.8196   -6.5597   40.7598 O   0  0  0  0  0  0  0  0  0  0  0  0
   45.5266   -7.2072   44.6270 C   0  0  0  0  0  0  0  0  0  0  0  0
   43.1222   -7.4441   46.3601 O   0  0  0  0  0  0  0  0  0  0  0  0
   46.0934   -6.4186   43.7543 O   0  0  0  0  0  0  0  0  0  0  0  0
   45.5800   -6.7415   45.7948 O   0  0  0  0  0  0  0  0  0  0  0  0
   43.3667   -7.9877   41.6137 C   0  0  0  0  0  0  0  0  0  0  0  0
   44.6987   -8.4045   41.6252 C   0  0  0  0  0  0  0  0  0  0  0  0
   45.3565   -8.7242   42.9508 C   0  0  0  0  0  0  0  0  0  0  0  0
  1  2  1  0
  1  3  1  0
  2  4  1  0
  4  5  1  0
  6  3  1  1
  5  6  1  0
  6  7  1  0
  5  8  1  0
  7  9  1  0
  9 10  1  0
  8 11  1  0
  9 11  1  0
  8 12  1  1
 12 13  2  0
 10 14  1  6
  7 15  2  0
 14 16  1  0
 14 17  2  0
 11 18  1  0
 18 19  1  0
 10 20  1  0
 19 20  1  0
M  END
$$$$
76
     RDKit          3D

 20 22  0  0  0  0  0  0  0  0999 V2000
   39.0195   -6.2743   45.8579 C   0  0  0  0  0  0  0  0  0  0  0  0
   40.1440   -6.8196   45.9549 C   0  0  0  0  0  0  0  0  0  0  0  0
   40.9150   -7.1632   44.8946 C   0  0  1  0  0  0  0  0  0  0  0  0
   38.6129   -6.0378   44.5493 C   0  0  0  0  0  0  0  0  0  0  0  0
   39.3003   -6.3710   43.4444 C   0  0  0  0  0  0  0  0  0  0  0  0
   40.5309   -6.9955   43.6652 C   0  0  0  0  0  0  0  0  0  0  0  0
   41.4220   -7.4610   42.4240 C   0  0  0  0  0  0  0  0  0  0  0  0
   42.7073   -7.6125   42.6152 N   0  0  0  0  0  0  0  0  0  0  0  0
   43.4739   -7.1489   43.6137 C   0  0  0  0  0  0  0  0  0  0  0  0
   42.4571   -7.3052   45.1068 C   0  0  0  0  0  0  0  0  0  0  0  0
   44.6335   -6.9039   43.9198 O   0  0  0  0  0  0  0  0  0  0  0  0
   40.8488   -7.7354   41.2139 O   0  0  0  0  0  0  0  0  0  0  0  0
   43.5694   -7.9542   41.4097 C   0  0  1  0  0  0  0  0  0  0  0  0
   43.7369   -7.1553   40.2693 C   0  0  0  0  0  0  0  0  0  0  0  0
   45.0449   -8.3276   41.7587 C   0  0  0  0  0  0  0  0  0  0  0  0
   45.9171   -7.3108   41.3734 N   0  0  0  0  0  0  0  0  0  0  0  0
   47.1442   -7.6238   40.8965 C   0  0  0  0  0  0  0  0  0  0  0  0
   45.1190   -6.6323   40.2003 C   0  0  0  0  0  0  0  0  0  0  0  0
   48.1281   -6.5850   40.9528 C   0  0  0  0  0  0  0  0  0  0  0  0
   47.5899   -8.7401   40.5071 O   0  0  0  0  0  0  0  0  0  0  0  0
  1  2  1  0
  3  2  1  1
  1  4  1  0
  4  5  1  0
  3  6  1  0
  5  6  1  0
  6  7  1  0
  7  8  1  0
  8  9  1  0
  3 10  1  0
  9 10  1  0
  9 11  2  0
  7 12  2  0
 13  8  1  1
 13 14  1  0
 13 15  1  0
 15 16  1  0
 16 17  1  0
 14 18  1  0
 16 18  1  0
 17 19  1  0
 17 20  2  0
M  END
$$$$
77
     RDKit          3D

 20 23  0  0  0  0  0  0  0  0999 V2000
   38.6889   -6.3536   45.8793 C   0  0  0  0  0  0  0  0  0  0  0  0
   38.4999   -6.1582   44.6526 C   0  0  0  0  0  0  0  0  0  0  0  0
   39.9152   -6.6374   46.1853 C   0  0  1  0  0  0  0  0  0  0  0  0
   40.3070   -6.7836   47.6995 C   0  0  0  0  0  0  0  0  0  0  0  0
   40.8209   -6.9201   45.2075 C   0  0  2  0  0  0  0  0  0  0  0  0
   41.5951   -6.7867   48.1001 C   0  0  0  0  0  0  0  0  0  0  0  0
   42.2438   -7.2669   45.7159 C   0  0  2  0  0  0  0  0  0  0  0  0
   42.5827   -7.1992   47.0623 C   0  0  1  0  0  0  0  0  0  0  0  0
   39.2677   -6.5617   43.7126 C   0  0  0  0  0  0  0  0  0  0  0  0
   43.2793   -7.4079   44.7708 N   0  0  0  0  0  0  0  0  0  0  0  0
   44.5281   -7.6994   45.2615 C   0  0  2  0  0  0  0  0  0  0  0  0
   43.2601   -7.8317   43.4339 C   0  0  0  0  0  0  0  0  0  0  0  0
   44.3367   -7.9977   42.8517 N   0  0  0  0  0  0  0  0  0  0  0  0
   40.5414   -6.8286   43.9218 C   0  0  0  0  0  0  0  0  0  0  0  0
   45.0020   -7.3135   46.4275 C   0  0  0  0  0  0  0  0  0  0  0  0
   43.9172   -7.4482   47.5372 C   0  0  0  0  0  0  0  0  0  0  0  0
   45.3784   -7.8889   43.9697 C   0  0  2  0  0  0  0  0  0  0  0  0
   46.7654   -7.9881   43.8773 C   0  0  0  0  0  0  0  0  0  0  0  0
   47.4288   -8.7925   44.5560 O   0  0  0  0  0  0  0  0  0  0  0  0
   47.4325   -7.2621   42.8869 O   0  0  0  0  0  0  0  0  0  0  0  0
  1  2  1  0
  3  1  1  6
  3  4  1  0
  3  5  1  0
  4  6  1  0
  5  7  1  0
  8  6  1  6
  7  8  1  0
  2  9  1  0
  7 10  1  6
 10 11  1  0
 10 12  1  0
 12 13  1  0
  5 14  1  6
  9 14  1  0
 11 15  1  1
  8 16  1  0
 15 16  1  0
 11 17  1  0
 13 17  1  0
 17 18  1  1
 18 19  1  0
 18 20  2  0
M  END
$$$$
78
     RDKit          3D

 20 20  0  0  0  0  0  0  0  0999 V2000
   39.0195   -6.2743   45.8579 C   0  0  1  0  0  0  0  0  0  0  0  0
   38.5836   -6.0987   44.6776 C   0  0  2  0  0  0  0  0  0  0  0  0
   37.2514   -5.6858   44.4391 O   0  0  0  0  0  0  0  0  0  0  0  0
   38.2475   -6.3062   47.0572 O   0  0  0  0  0  0  0  0  0  0  0  0
   38.9008   -7.2849   43.7077 C   0  0  2  0  0  0  0  0  0  0  0  0
   40.3178   -7.5763   43.7933 O   0  0  0  0  0  0  0  0  0  0  0  0
   38.5929   -7.0722   42.2623 O   0  0  0  0  0  0  0  0  0  0  0  0
   39.9320   -7.5599   46.0149 C   0  0  1  0  0  0  0  0  0  0  0  0
   40.9294   -7.6250   44.9924 C   0  0  1  0  0  0  0  0  0  0  0  0
   40.2891   -7.9135   47.3530 O   0  0  0  0  0  0  0  0  0  0  0  0
   39.5753   -7.3908   41.3312 C   0  0  0  0  0  0  0  0  0  0  0  0
   41.8756   -8.7491   45.0496 C   0  0  0  0  0  0  0  0  0  0  0  0
   39.7501   -6.4800   40.2797 C   0  0  0  0  0  0  0  0  0  0  0  0
   43.2716   -8.3377   45.1321 O   0  0  0  0  0  0  0  0  0  0  0  0
   40.9082   -6.7710   39.5091 O   0  0  0  0  0  0  0  0  0  0  0  0
   43.7077   -7.2916   45.3169 C   0  0  1  0  0  0  0  0  0  0  0  0
   44.4313   -7.0882   46.5447 C   0  0  0  0  0  0  0  0  0  0  0  0
   44.7406   -6.8954   44.2725 C   0  0  0  0  0  0  0  0  0  0  0  0
   44.3767   -6.5164   43.0523 O   0  0  0  0  0  0  0  0  0  0  0  0
   45.9439   -6.7469   44.6031 O   0  0  0  0  0  0  0  0  0  0  0  0
  1  2  1  0
  2  3  1  1
  1  4  1  1
  2  5  1  0
  5  6  1  0
  5  7  1  6
  1  8  1  0
  6  9  1  0
  8  9  1  0
  8 10  1  1
  7 11  1  0
  9 12  1  6
 11 13  1  0
 12 14  1  0
 13 15  1  0
 14 16  1  0
 16 17  1  1
 16 18  1  0
 18 19  1  0
 18 20  2  0
M  END
$$$$
79
     RDKit          3D

 21 22  0  0  0  0  0  0  0  0999 V2000
   39.0195   -6.2743   45.8579 C   0  0  0  0  0  0  0  0  0  0  0  0
   40.1440   -6.8196   45.9549 C   0  0  0  0  0  0  0  0  0  0  0  0
   40.9150   -7.1632   44.8946 C   0  0  1  0  0  0  0  0  0  0  0  0
   38.6129   -6.0378   44.5493 C   0  0  0  0  0  0  0  0  0  0  0  0
   39.3003   -6.3710   43.4444 C   0  0  0  0  0  0  0  0  0  0  0  0
   40.5309   -6.9955   43.6652 C   0  0  0  0  0  0  0  0  0  0  0  0
   41.4220   -7.4610   42.4240 C   0  0  2  0  0  0  0  0  0  0  0  0
   42.7073   -7.6125   42.6152 N   0  0  0  0  0  0  0  0  0  0  0  0
   43.4739   -7.1489   43.6137 C   0  0  1  0  0  0  0  0  0  0  0  0
   42.3685   -7.6122   45.2765 C   0  0  0  0  0  0  0  0  0  0  0  0
   40.7340   -7.2644   41.1890 N   0  0  0  0  0  0  0  0  0  0  0  0
   41.1492   -8.1990   40.2126 C   0  0  0  0  0  0  0  0  0  0  0  0
   44.7214   -7.5517   43.9869 C   0  0  0  0  0  0  0  0  0  0  0  0
   45.7057   -6.5023   44.1533 C   0  0  0  0  0  0  0  0  0  0  0  0
   41.7815   -9.1095   40.3077 O   0  0  0  0  0  0  0  0  0  0  0  0
   40.4639   -8.0520   38.8165 C   0  0  1  0  0  0  0  0  0  0  0  0
   39.8585   -6.8033   38.5135 C   0  0  0  0  0  0  0  0  0  0  0  0
   45.2962   -8.2348   42.8910 C   0  0  0  0  0  0  0  0  0  0  0  0
   41.3329   -8.3280   37.6943 C   0  0  0  0  0  0  0  0  0  0  0  0
   40.6156   -5.7900   38.1497 O   0  0  0  0  0  0  0  0  0  0  0  0
   38.5052   -6.7514   38.5768 O   0  0  0  0  0  0  0  0  0  0  0  0
  1  2  1  0
  3  2  1  1
  1  4  1  0
  4  5  1  0
  3  6  1  0
  5  6  1  0
  6  7  1  0
  7  8  1  0
  8  9  1  0
  3 10  1  0
  9 10  1  0
  7 11  1  6
 11 12  1  0
  9 13  1  1
 13 14  1  0
 12 15  2  0
 12 16  1  0
 16 17  1  0
 13 18  1  0
 16 19  1  6
 17 20  1  0
 17 21  2  0
M  END
$$$$
8
     RDKit          3D

 15 17  0  0  0  0  0  0  0  0999 V2000
   39.0195   -6.2743   45.8579 C   0  0  0  0  0  0  0  0  0  0  0  0
   40.1440   -6.8196   45.9549 C   0  0  0  0  0  0  0  0  0  0  0  0
   40.9150   -7.1632   44.8946 C   0  0  2  0  0  0  0  0  0  0  0  0
   42.2574   -7.6994   45.0623 C   0  0  0  0  0  0  0  0  0  0  0  0
   38.4694   -5.9486   44.6075 C   0  0  0  0  0  0  0  0  0  0  0  0
   40.4698   -6.7282   43.5993 C   0  0  2  0  0  0  0  0  0  0  0  0
   43.1289   -7.7927   43.9805 N   0  0  0  0  0  0  0  0  0  0  0  0
   39.1741   -6.2554   43.4752 C   0  0  0  0  0  0  0  0  0  0  0  0
   42.8026   -8.4857   46.0918 O   0  0  0  0  0  0  0  0  0  0  0  0
   41.2681   -7.0398   42.4121 N   0  0  0  0  0  0  0  0  0  0  0  0
   44.4425   -8.2180   44.0640 C   0  0  0  0  0  0  0  0  0  0  0  0
   45.4018   -7.0225   43.8283 C   0  0  0  0  0  0  0  0  0  0  0  0
   44.9109   -6.0432   43.1307 C   0  0  0  0  0  0  0  0  0  0  0  0
   42.6445   -7.4169   42.8106 C   0  0  1  0  0  0  0  0  0  0  0  0
   43.6236   -6.3178   42.2935 C   0  0  0  0  0  0  0  0  0  0  0  0
  1  2  1  0
  3  2  1  1
  3  4  1  0
  1  5  1  0
  3  6  1  0
  4  7  1  0
  5  8  1  0
  6  8  1  6
  4  9  2  0
  6 10  1  0
  7 11  1  0
 11 12  1  0
 12 13  1  0
  7 14  1  0
 10 14  1  0
 13 15  1  0
 14 15  1  1
M  END
$$$$
80
     RDKit          3D

 21 23  0  0  0  0  0  0  0  0999 V2000
   39.0195   -6.2743   45.8579 C   0  0  1  0  0  0  0  0  0  0  0  0
   38.5836   -6.0987   44.6776 C   0  0  0  0  0  0  0  0  0  0  0  0
   38.2313   -6.3106   46.9841 O   0  0  0  0  0  0  0  0  0  0  0  0
   39.3282   -6.1607   43.4956 C   0  0  2  0  0  0  0  0  0  0  0  0
   40.4580   -6.5668   45.9989 C   0  0  0  0  0  0  0  0  0  0  0  0
   38.8119   -6.0493   42.1820 O   0  0  0  0  0  0  0  0  0  0  0  0
   40.6940   -6.7319   43.6947 C   0  0  2  0  0  0  0  0  0  0  0  0
   41.2174   -6.8341   44.9437 C   0  0  1  0  0  0  0  0  0  0  0  0
   42.6253   -7.1190   45.0276 N   0  0  0  0  0  0  0  0  0  0  0  0
   41.6205   -6.9153   42.6455 C   0  0  0  0  0  0  0  0  0  0  0  0
   42.8469   -7.3550   42.8441 C   0  0  2  0  0  0  0  0  0  0  0  0
   43.3470   -7.4379   44.0689 C   0  0  1  0  0  0  0  0  0  0  0  0
   43.7570   -7.6954   41.6610 C   0  0  1  0  0  0  0  0  0  0  0  0
   44.7231   -7.8061   44.4146 O   0  0  0  0  0  0  0  0  0  0  0  0
   45.7251   -7.2893   43.6890 C   0  0  0  0  0  0  0  0  0  0  0  0
   45.2469   -7.6056   42.1048 C   0  0  2  0  0  0  0  0  0  0  0  0
   46.7015   -6.8735   43.9123 O   0  0  0  0  0  0  0  0  0  0  0  0
   43.5673   -8.9280   41.2101 O   0  0  0  0  0  0  0  0  0  0  0  0
   45.9632   -6.7670   41.1493 C   0  0  0  0  0  0  0  0  0  0  0  0
   45.3495   -6.1643   40.1657 O   0  0  0  0  0  0  0  0  0  0  0  0
   47.2355   -6.6436   41.0965 O   0  0  0  0  0  0  0  0  0  0  0  0
  1  2  1  0
  1  3  1  6
  2  4  1  0
  1  5  1  0
  4  6  1  6
  4  7  1  0
  8  5  1  1
  7  8  1  0
  8  9  1  0
  7 10  1  6
 11 10  1  6
 12  9  1  6
 11 12  1  0
 11 13  1  0
 12 14  1  0
 14 15  1  0
 13 16  1  0
 15 16  1  0
 15 17  2  0
 13 18  1  1
 16 19  1  6
 19 20  2  0
 19 21  1  0
M  END
$$$$
81
     RDKit          3D

 21 22  0  0  0  0  0  0  0  0999 V2000
   39.9370   -5.0356   38.7551 O   0  0  0  0  0  0  0  0  0  0  0  0
   40.1679   -5.7768   38.0002 C   0  0  0  0  0  0  0  0  0  0  0  0
   40.8883   -6.9816   38.2343 C   0  0  0  0  0  0  0  0  0  0  0  0
   41.2062   -7.1545   39.6456 N   0  0  0  0  0  0  0  0  0  0  0  0
   40.4109   -7.3242   40.7227 C   0  0  0  0  0  0  0  0  0  0  0  0
   40.9990   -7.3076   41.9682 C   0  0  2  0  0  0  0  0  0  0  0  0
   40.3645   -6.8414   43.0958 C   0  0  0  0  0  0  0  0  0  0  0  0
   42.3517   -7.5210   42.0279 N   0  0  0  0  0  0  0  0  0  0  0  0
   39.8285   -5.6186   36.7039 O   0  0  0  0  0  0  0  0  0  0  0  0
   42.9625   -7.5682   43.2647 C   0  0  0  0  0  0  0  0  0  0  0  0
   42.3208   -7.2114   44.4252 C   0  0  1  0  0  0  0  0  0  0  0  0
   39.2629   -7.8770   40.5855 O   0  0  0  0  0  0  0  0  0  0  0  0
   40.9496   -6.8723   44.2717 C   0  0  0  0  0  0  0  0  0  0  0  0
   43.0306   -7.3704   45.6765 C   0  0  0  0  0  0  0  0  0  0  0  0
   42.3234   -7.3606   46.8639 C   0  0  0  0  0  0  0  0  0  0  0  0
   42.9851   -7.5213   48.1712 C   0  0  0  0  0  0  0  0  0  0  0  0
   42.3510   -7.2425   49.2134 N   0  0  0  0  0  0  0  0  0  0  0  0
   42.7673   -7.5941   50.4914 C   0  0  0  0  0  0  0  0  0  0  0  0
   44.2680   -7.8882   48.0418 N   0  0  0  0  0  0  0  0  0  0  0  0
   44.9351   -8.1714   49.2388 C   0  0  0  0  0  0  0  0  0  0  0  0
   44.1951   -8.0182   50.4823 C   0  0  0  0  0  0  0  0  0  0  0  0
  1  2  1  0
  2  3  1  0
  3  4  1  0
  4  5  1  0
  6  5  1  6
  6  7  1  0
  6  8  1  0
  2  9  2  0
  8 10  1  0
 11 10  1  6
  5 12  2  0
  7 13  1  0
 11 13  1  0
 11 14  1  0
 14 15  2  3
 15 16  1  0
 16 17  1  0
 17 18  1  0
 16 19  2  0
 19 20  1  0
 18 21  1  0
 20 21  2  0
M  END
$$$$
82
     RDKit          3D

 21 23  0  0  0  0  0  0  0  0999 V2000
   38.6889   -6.3536   45.8793 C   0  0  0  0  0  0  0  0  0  0  0  0
   39.8810   -6.8633   46.1804 C   0  0  2  0  0  0  0  0  0  0  0  0
   38.5371   -6.2487   44.6191 C   0  0  2  0  0  0  0  0  0  0  0  0
   40.2331   -6.9651   47.7113 C   0  0  0  0  0  0  0  0  0  0  0  0
   41.5638   -6.7743   48.1437 C   0  0  0  0  0  0  0  0  0  0  0  0
   40.9325   -7.0419   45.3724 C   0  0  0  0  0  0  0  0  0  0  0  0
   41.8367   -6.8121   49.5485 C   0  0  0  0  0  0  0  0  0  0  0  0
   40.6366   -6.9684   44.1678 C   0  0  0  0  0  0  0  0  0  0  0  0
   41.6673   -7.2288   43.0820 N   0  0  0  0  0  0  0  0  0  0  0  0
   37.1177   -5.8479   44.0492 C   0  0  0  0  0  0  0  0  0  0  0  0
   42.9760   -7.2300   43.3410 C   0  0  2  0  0  0  0  0  0  0  0  0
   43.8301   -7.3926   42.2431 C   0  0  0  0  0  0  0  0  0  0  0  0
   39.4530   -6.6300   43.4616 C   0  0  0  0  0  0  0  0  0  0  0  0
   43.8677   -7.2904   44.2424 O   0  0  0  0  0  0  0  0  0  0  0  0
   45.1911   -7.3384   42.5867 C   0  0  1  0  0  0  0  0  0  0  0  0
   43.4149   -7.5585   40.7875 C   0  0  0  0  0  0  0  0  0  0  0  0
   45.0249   -7.3188   43.9466 N   0  0  0  0  0  0  0  0  0  0  0  0
   44.3669   -7.7432   39.7472 C   0  0  0  0  0  0  0  0  0  0  0  0
   46.1862   -7.4128   41.6393 C   0  0  0  0  0  0  0  0  0  0  0  0
   39.2418   -6.6239   42.1493 O   0  0  0  0  0  0  0  0  0  0  0  0
   45.8028   -7.6302   40.1921 C   0  0  0  0  0  0  0  0  0  0  0  0
  1  2  1  0
  1  3  1  0
  2  4  1  1
  4  5  1  0
  2  6  1  0
  5  7  1  0
  6  8  1  0
  8  9  1  0
  3 10  1  6
 11  9  1  1
 11 12  1  0
  3 13  1  0
  8 13  1  0
 11 14  1  0
 12 15  1  0
 12 16  1  0
 14 17  1  0
 15 17  1  0
 16 18  1  0
 15 19  1  1
 13 20  1  0
 18 21  1  0
 19 21  1  0
M  END
$$$$
83
     RDKit          3D

 21 22  0  0  0  0  0  0  0  0999 V2000
   38.6889   -6.3536   45.8793 C   0  0  0  0  0  0  0  0  0  0  0  0
   38.4999   -6.1582   44.6526 C   0  0  0  0  0  0  0  0  0  0  0  0
   39.9152   -6.6374   46.1853 C   0  0  0  0  0  0  0  0  0  0  0  0
   40.3070   -6.7836   47.6995 C   0  0  0  0  0  0  0  0  0  0  0  0
   40.9821   -6.8850   45.3761 C   0  0  0  0  0  0  0  0  0  0  0  0
   39.4926   -6.4294   43.6020 C   0  0  0  0  0  0  0  0  0  0  0  0
   39.4314   -6.8424   48.5588 O   0  0  0  0  0  0  0  0  0  0  0  0
   41.5906   -6.5509   48.0814 N   0  0  0  0  0  0  0  0  0  0  0  0
   40.6944   -6.8190   44.0311 C   0  0  1  0  0  0  0  0  0  0  0  0
   41.7407   -7.0757   43.0514 C   0  0  2  0  0  0  0  0  0  0  0  0
   41.9727   -6.4960   49.3787 C   0  0  0  0  0  0  0  0  0  0  0  0
   41.3848   -7.4070   41.7339 N   0  0  0  0  0  0  0  0  0  0  0  0
   42.2043   -8.2102   40.9139 C   0  0  0  0  0  0  0  0  0  0  0  0
   43.0319   -7.3598   43.3250 O   0  0  0  0  0  0  0  0  0  0  0  0
   40.1480   -7.1559   40.9903 C   0  0  0  0  0  0  0  0  0  0  0  0
   39.2034   -6.5414   41.4954 O   0  0  0  0  0  0  0  0  0  0  0  0
   41.9059   -8.4801   39.6249 C   0  0  0  0  0  0  0  0  0  0  0  0
   44.0363   -6.4265   43.2928 C   0  0  0  0  0  0  0  0  0  0  0  0
   40.6407   -8.1712   39.1319 C   0  0  0  0  0  0  0  0  0  0  0  0
   40.0240   -7.4879   39.7412 N   0  0  0  0  0  0  0  0  0  0  0  0
   40.2680   -8.7642   37.8287 O   0  0  0  0  0  0  0  0  0  0  0  0
  1  2  1  0
  1  3  1  0
  3  4  1  0
  3  5  1  0
  2  6  1  0
  4  7  2  0
  4  8  1  0
  9  5  1  1
  6  9  1  0
  9 10  1  0
  8 11  1  0
 10 12  1  0
 12 13  1  0
 10 14  1  1
 12 15  1  0
 15 16  2  0
 13 17  1  0
 14 18  1  0
 17 19  1  0
 15 20  1  0
 19 20  1  0
 19 21  2  0
M  END
$$$$
84
     RDKit          3D

 21 22  0  0  0  0  0  0  0  0999 V2000
   39.0195   -6.2743   45.8579 C   0  0  1  0  0  0  0  0  0  0  0  0
   38.5836   -6.0987   44.6776 C   0  0  2  0  0  0  0  0  0  0  0  0
   37.2514   -5.6858   44.4391 O   0  0  0  0  0  0  0  0  0  0  0  0
   38.2475   -6.3062   47.0572 O   0  0  0  0  0  0  0  0  0  0  0  0
   38.9008   -7.2849   43.7077 C   0  0  2  0  0  0  0  0  0  0  0  0
   40.3178   -7.5763   43.7933 O   0  0  0  0  0  0  0  0  0  0  0  0
   38.5929   -7.0722   42.2623 O   0  0  0  0  0  0  0  0  0  0  0  0
   39.9320   -7.5599   46.0149 C   0  0  1  0  0  0  0  0  0  0  0  0
   40.9294   -7.6250   44.9924 C   0  0  1  0  0  0  0  0  0  0  0  0
   40.2891   -7.9135   47.3530 O   0  0  0  0  0  0  0  0  0  0  0  0
   39.5753   -7.3908   41.3312 C   0  0  0  0  0  0  0  0  0  0  0  0
   41.8756   -8.7491   45.0496 C   0  0  0  0  0  0  0  0  0  0  0  0
   39.7501   -6.4800   40.2797 C   0  0  0  0  0  0  0  0  0  0  0  0
   38.8355   -6.2843   39.4176 O   0  0  0  0  0  0  0  0  0  0  0  0
   43.2605   -8.3508   45.0868 O   0  0  0  0  0  0  0  0  0  0  0  0
   43.6784   -7.2504   45.1712 C   0  0  0  0  0  0  0  0  0  0  0  0
   44.3287   -6.6690   44.0355 C   0  0  2  0  0  0  0  0  0  0  0  0
   43.7204   -6.5821   42.8375 N   0  0  0  0  0  0  0  0  0  0  0  0
   45.6629   -6.7170   43.7520 O   0  0  0  0  0  0  0  0  0  0  0  0
   44.6808   -6.3759   41.8300 C   0  0  0  0  0  0  0  0  0  0  0  0
   45.6960   -6.7699   42.3992 C   0  0  0  0  0  0  0  0  0  0  0  0
  1  2  1  0
  2  3  1  1
  1  4  1  1
  2  5  1  0
  5  6  1  0
  5  7  1  6
  1  8  1  0
  6  9  1  0
  8  9  1  0
  8 10  1  1
  7 11  1  0
  9 12  1  6
 11 13  1  0
 13 14  1  0
 12 15  1  0
 15 16  1  0
 17 16  1  6
 17 18  1  0
 17 19  1  0
 18 20  1  0
 19 21  1  0
 20 21  1  0
M  END
$$$$
85
     RDKit          3D

 21 23  0  0  0  0  0  0  0  0999 V2000
   38.6889   -6.3536   45.8793 C   0  0  0  0  0  0  0  0  0  0  0  0
   38.4999   -6.1582   44.6526 C   0  0  2  0  0  0  0  0  0  0  0  0
   40.0305   -6.5017   46.3332 C   0  0  1  0  0  0  0  0  0  0  0  0
   40.2685   -6.6031   47.8138 C   0  0  0  0  0  0  0  0  0  0  0  0
   37.1651   -5.9537   44.0291 C   0  0  0  0  0  0  0  0  0  0  0  0
   41.5687   -6.5163   48.3701 C   0  0  0  0  0  0  0  0  0  0  0  0
   42.6486   -6.6641   47.5352 C   0  0  2  0  0  0  0  0  0  0  0  0
   39.5632   -6.1801   43.6536 C   0  0  0  0  0  0  0  0  0  0  0  0
   42.5195   -6.9297   46.1362 C   0  0  0  0  0  0  0  0  0  0  0  0
   43.5855   -7.2783   45.3109 N   0  0  0  0  0  0  0  0  0  0  0  0
   41.1798   -6.8225   45.4911 C   0  0  2  0  0  0  0  0  0  0  0  0
   40.9143   -6.8507   44.0991 C   0  0  0  0  0  0  0  0  0  0  0  0
   44.8892   -7.3396   45.8462 C   0  0  1  0  0  0  0  0  0  0  0  0
   44.9912   -7.4695   47.0868 C   0  0  0  0  0  0  0  0  0  0  0  0
   43.9914   -6.8420   48.0662 C   0  0  0  0  0  0  0  0  0  0  0  0
   46.0067   -7.4248   44.9084 C   0  0  0  0  0  0  0  0  0  0  0  0
   45.9623   -6.6653   43.7532 N   0  0  0  0  0  0  0  0  0  0  0  0
   44.9312   -5.8645   43.3649 C   0  0  0  0  0  0  0  0  0  0  0  0
   44.5557   -6.4209   42.0042 C   0  0  0  0  0  0  0  0  0  0  0  0
   45.3097   -6.0976   40.9663 O   0  0  0  0  0  0  0  0  0  0  0  0
   43.4240   -7.1114   41.8658 O   0  0  0  0  0  0  0  0  0  0  0  0
  1  2  1  0
  3  1  1  6
  3  4  1  0
  2  5  1  6
  4  6  1  0
  7  6  1  1
  2  8  1  0
  7  9  1  0
  9 10  1  0
  3 11  1  0
  9 11  1  0
  8 12  1  0
 11 12  1  6
 10 13  1  0
 13 14  1  0
  7 15  1  0
 14 15  1  0
 13 16  1  6
 16 17  1  0
 17 18  1  0
 18 19  1  0
 19 20  1  0
 19 21  2  0
M  END
$$$$
86
     RDKit          3D

 21 22  0  0  0  0  0  0  0  0999 V2000
   39.9370   -5.0356   38.7551 O   0  0  0  0  0  0  0  0  0  0  0  0
   40.1679   -5.7768   38.0002 C   0  0  0  0  0  0  0  0  0  0  0  0
   40.9030   -6.9573   38.2045 N   0  0  0  0  0  0  0  0  0  0  0  0
   39.6876   -5.7103   36.7153 O   0  0  0  0  0  0  0  0  0  0  0  0
   41.1725   -7.3484   39.4911 C   0  0  2  0  0  0  0  0  0  0  0  0
   42.5422   -7.8296   39.6618 C   0  0  2  0  0  0  0  0  0  0  0  0
   43.1882   -7.7610   40.9096 N   0  0  0  0  0  0  0  0  0  0  0  0
   40.2667   -7.7668   40.1113 O   0  0  0  0  0  0  0  0  0  0  0  0
   43.5909   -7.5218   38.5997 C   0  0  0  0  0  0  0  0  0  0  0  0
   43.2558   -7.2725   37.4079 O   0  0  0  0  0  0  0  0  0  0  0  0
   44.8461   -7.1963   38.9999 N   0  0  0  0  0  0  0  0  0  0  0  0
   45.9133   -6.8957   38.2729 C   0  0  0  0  0  0  0  0  0  0  0  0
   46.5385   -7.7128   37.5823 O   0  0  0  0  0  0  0  0  0  0  0  0
   46.7009   -5.7096   38.5814 O   0  0  0  0  0  0  0  0  0  0  0  0
   43.0465   -8.3198   42.0437 C   0  0  0  0  0  0  0  0  0  0  0  0
   44.7598   -6.9284   40.5110 C   0  0  2  0  0  0  0  0  0  0  0  0
   43.5290   -7.7767   43.2850 C   0  0  0  0  0  0  0  0  0  0  0  0
   44.7881   -7.4012   43.5125 C   0  0  1  0  0  0  0  0  0  0  0  0
   45.6884   -6.7797   42.5181 C   0  0  0  0  0  0  0  0  0  0  0  0
   45.0598   -6.4990   44.7328 C   0  0  0  0  0  0  0  0  0  0  0  0
   45.7812   -7.2590   41.3191 C   0  0  0  0  0  0  0  0  0  0  0  0
  1  2  2  0
  2  3  1  0
  2  4  1  0
  3  5  1  0
  5  6  1  0
  6  7  1  1
  5  8  1  6
  6  9  1  0
  9 10  2  0
  9 11  1  0
 11 12  1  0
 12 13  1  0
 12 14  2  0
  7 15  1  0
  7 16  1  0
 11 16  1  0
 15 17  1  0
 17 18  1  0
 18 19  1  0
 18 20  1  1
 16 21  1  1
 19 21  1  0
M  END
$$$$
87
     RDKit          3D

 21 23  0  0  0  0  0  0  0  0999 V2000
   39.9370   -5.0356   38.7551 O   0  0  0  0  0  0  0  0  0  0  0  0
   40.1679   -5.7768   38.0002 C   0  0  0  0  0  0  0  0  0  0  0  0
   40.8883   -6.9816   38.2343 C   0  0  0  0  0  0  0  0  0  0  0  0
   39.7877   -5.6592   36.7657 O   0  0  0  0  0  0  0  0  0  0  0  0
   41.3192   -7.2079   39.6210 N   0  0  0  0  0  0  0  0  0  0  0  0
   40.5190   -7.5054   40.6719 C   0  0  1  0  0  0  0  0  0  0  0  0
   41.1823   -7.4816   41.9321 C   0  0  2  0  0  0  0  0  0  0  0  0
   40.6024   -6.9485   43.0594 C   0  0  0  0  0  0  0  0  0  0  0  0
   39.2297   -6.6322   43.0236 C   0  0  1  0  0  0  0  0  0  0  0  0
   41.4239   -6.7760   44.2834 C   0  0  0  0  0  0  0  0  0  0  0  0
   38.5051   -6.8698   41.8671 C   0  0  0  0  0  0  0  0  0  0  0  0
   38.2571   -6.1249   44.2783 C   0  0  0  0  0  0  0  0  0  0  0  0
   39.1885   -7.1995   40.7157 C   0  0  0  0  0  0  0  0  0  0  0  0
   42.7397   -7.6032   39.8426 C   0  0  0  0  0  0  0  0  0  0  0  0
   42.7690   -6.9789   44.1624 N   0  0  0  0  0  0  0  0  0  0  0  0
   43.2797   -7.4115   43.0494 C   0  0  1  0  0  0  0  0  0  0  0  0
   42.6031   -7.5703   41.7164 C   0  0  1  0  0  0  0  0  0  0  0  0
   44.7471   -7.6121   42.9308 N   0  0  0  0  0  0  0  0  0  0  0  0
   45.6722   -6.7132   43.3468 C   0  0  0  0  0  0  0  0  0  0  0  0
   46.9308   -6.9971   43.0618 O   0  0  0  0  0  0  0  0  0  0  0  0
   45.3359   -5.6434   44.1144 O   0  0  0  0  0  0  0  0  0  0  0  0
  1  2  1  0
  2  3  1  0
  2  4  2  0
  3  5  1  0
  5  6  1  0
  6  7  1  0
  7  8  1  6
  8  9  1  0
  8 10  1  0
  9 11  1  0
  9 12  1  1
  6 13  1  1
 11 13  1  0
  5 14  1  0
 10 15  1  0
 15 16  1  0
  7 17  1  0
 17 14  1  6
 16 17  1  0
 16 18  1  6
 18 19  1  0
 19 20  2  0
 19 21  1  0
M  END
$$$$
88
     RDKit          3D

 21 23  0  0  0  0  0  0  0  0999 V2000
   39.9370   -5.0356   38.7551 O   0  0  0  0  0  0  0  0  0  0  0  0
   40.1679   -5.7768   38.0002 C   0  0  0  0  0  0  0  0  0  0  0  0
   40.8883   -6.9816   38.2343 C   0  0  0  0  0  0  0  0  0  0  0  0
   39.7877   -5.6592   36.7657 O   0  0  0  0  0  0  0  0  0  0  0  0
   41.3192   -7.2079   39.6210 N   0  0  0  0  0  0  0  0  0  0  0  0
   40.5190   -7.5054   40.6719 C   0  0  1  0  0  0  0  0  0  0  0  0
   41.1823   -7.4816   41.9321 C   0  0  2  0  0  0  0  0  0  0  0  0
   40.6024   -6.9485   43.0594 C   0  0  0  0  0  0  0  0  0  0  0  0
   39.2297   -6.6322   43.0236 C   0  0  1  0  0  0  0  0  0  0  0  0
   41.4239   -6.7760   44.2834 C   0  0  0  0  0  0  0  0  0  0  0  0
   38.5051   -6.8698   41.8671 C   0  0  0  0  0  0  0  0  0  0  0  0
   38.2571   -6.1249   44.2783 C   0  0  0  0  0  0  0  0  0  0  0  0
   39.1885   -7.1995   40.7157 C   0  0  0  0  0  0  0  0  0  0  0  0
   42.7397   -7.6032   39.8426 C   0  0  0  0  0  0  0  0  0  0  0  0
   42.7690   -6.9789   44.1624 N   0  0  0  0  0  0  0  0  0  0  0  0
   43.2797   -7.4115   43.0494 C   0  0  1  0  0  0  0  0  0  0  0  0
   42.6031   -7.5703   41.7164 C   0  0  1  0  0  0  0  0  0  0  0  0
   44.8605   -7.7478   42.9320 C   0  0  0  0  0  0  0  0  0  0  0  0
   45.7557   -6.6987   42.9678 C   0  0  0  0  0  0  0  0  0  0  0  0
   46.6485   -6.7347   42.0887 O   0  0  0  0  0  0  0  0  0  0  0  0
   45.7222   -5.8487   43.9323 O   0  0  0  0  0  0  0  0  0  0  0  0
  1  2  1  0
  2  3  1  0
  2  4  2  0
  3  5  1  0
  5  6  1  0
  6  7  1  0
  7  8  1  6
  8  9  1  0
  8 10  1  0
  9 11  1  0
  9 12  1  1
  6 13  1  1
 11 13  1  0
  5 14  1  0
 10 15  1  0
 15 16  1  0
  7 17  1  0
 17 14  1  6
 16 17  1  0
 16 18  1  6
 18 19  1  0
 19 20  2  0
 19 21  1  0
M  END
$$$$
89
     RDKit          3D

 21 22  0  0  0  0  0  0  0  0999 V2000
   39.9370   -5.0356   38.7551 O   0  0  0  0  0  0  0  0  0  0  0  0
   40.1679   -5.7768   38.0002 C   0  0  0  0  0  0  0  0  0  0  0  0
   40.8883   -6.9816   38.2343 C   0  0  0  0  0  0  0  0  0  0  0  0
   39.7877   -5.6592   36.7657 O   0  0  0  0  0  0  0  0  0  0  0  0
   41.3192   -7.2079   39.6210 N   0  0  0  0  0  0  0  0  0  0  0  0
   40.5190   -7.5054   40.6719 C   0  0  1  0  0  0  0  0  0  0  0  0
   41.1823   -7.4816   41.9321 C   0  0  2  0  0  0  0  0  0  0  0  0
   40.6024   -6.9485   43.0594 C   0  0  0  0  0  0  0  0  0  0  0  0
   39.2297   -6.6322   43.0236 C   0  0  1  0  0  0  0  0  0  0  0  0
   41.4239   -6.7760   44.2834 C   0  0  0  0  0  0  0  0  0  0  0  0
   38.5051   -6.8698   41.8671 C   0  0  0  0  0  0  0  0  0  0  0  0
   38.2571   -6.1249   44.2783 C   0  0  0  0  0  0  0  0  0  0  0  0
   39.1885   -7.1995   40.7157 C   0  0  0  0  0  0  0  0  0  0  0  0
   42.7397   -7.6032   39.8426 C   0  0  1  0  0  0  0  0  0  0  0  0
   37.4832   -5.2563   44.0862 N   0  0  0  0  0  0  0  0  0  0  0  0
   43.7533   -7.5608   39.0100 C   0  0  0  0  0  0  0  0  0  0  0  0
   42.5976   -7.8278   41.4872 C   0  0  0  0  0  0  0  0  0  0  0  0
   43.9579   -8.4999   38.2543 O   0  0  0  0  0  0  0  0  0  0  0  0
   44.7634   -6.6031   39.2030 N   0  0  0  0  0  0  0  0  0  0  0  0
   45.0835   -5.9363   40.4278 O   0  0  0  0  0  0  0  0  0  0  0  0
   38.6680   -6.6259   45.4525 N   0  0  0  0  0  0  0  0  0  0  0  0
  1  2  1  0
  2  3  1  0
  2  4  2  0
  3  5  1  0
  5  6  1  0
  6  7  1  0
  7  8  1  0
  8  9  1  0
  8 10  1  0
  9 11  1  0
  9 12  1  1
  6 13  1  1
 11 13  1  0
  5 14  1  0
 12 15  2  0
 14 16  1  1
  7 17  1  6
 14 17  1  0
 16 18  2  0
 16 19  1  0
 19 20  1  0
 12 21  1  0
M  END
$$$$
9
     RDKit          3D

 15 17  0  0  0  0  0  0  0  0999 V2000
   38.6889   -6.3536   45.8793 C   0  0  0  0  0  0  0  0  0  0  0  0
   38.4999   -6.1582   44.6526 C   0  0  0  0  0  0  0  0  0  0  0  0
   39.9152   -6.6374   46.1853 C   0  0  0  0  0  0  0  0  0  0  0  0
   40.9152   -6.9183   45.3691 C   0  0  0  0  0  0  0  0  0  0  0  0
   39.3429   -6.3701   43.7247 C   0  0  0  0  0  0  0  0  0  0  0  0
   40.6824   -6.8389   44.1836 C   0  0  0  0  0  0  0  0  0  0  0  0
   41.7708   -7.1308   43.0520 C   0  0  1  0  0  0  0  0  0  0  0  0
   43.0155   -6.8981   43.3425 N   0  0  0  0  0  0  0  0  0  0  0  0
   41.6553   -8.1347   42.0575 O   0  0  0  0  0  0  0  0  0  0  0  0
   43.9137   -7.3458   42.3908 C   0  0  1  0  0  0  0  0  0  0  0  0
   42.9245   -8.1451   41.4540 C   0  0  1  0  0  0  0  0  0  0  0  0
   43.3433   -8.8583   40.2792 C   0  0  0  0  0  0  0  0  0  0  0  0
   45.1943   -7.1095   42.0960 C   0  0  0  0  0  0  0  0  0  0  0  0
   45.6902   -7.8179   40.8351 C   0  0  0  0  0  0  0  0  0  0  0  0
   44.7950   -8.6196   40.0129 C   0  0  0  0  0  0  0  0  0  0  0  0
  1  2  1  0
  1  3  1  0
  3  4  1  0
  2  5  1  0
  4  6  1  0
  5  6  1  0
  7  6  1  1
  7  8  1  0
  7  9  1  0
  8 10  1  0
  9 11  1  0
 10 11  1  0
 11 12  1  1
 10 13  1  6
 13 14  1  0
 12 15  1  0
 14 15  1  0
M  END
$$$$
90
     RDKit          3D

 21 24  0  0  0  0  0  0  0  0999 V2000
   39.0195   -6.2743   45.8579 C   0  0  0  0  0  0  0  0  0  0  0  0
   38.5836   -6.0987   44.6776 C   0  0  0  0  0  0  0  0  0  0  0  0
   39.3190   -6.2929   43.5245 C   0  0  0  0  0  0  0  0  0  0  0  0
   40.5596   -6.9225   43.6725 C   0  0  0  0  0  0  0  0  0  0  0  0
   38.3064   -5.9838   47.0588 F   0  0  0  0  0  0  0  0  0  0  0  0
   40.3580   -6.8358   46.0261 C   0  0  0  0  0  0  0  0  0  0  0  0
   41.0931   -7.1000   44.9592 C   0  0  0  0  0  0  0  0  0  0  0  0
   41.3908   -7.2322   42.5257 N   0  0  0  0  0  0  0  0  0  0  0  0
   42.6801   -7.5670   42.6501 C   0  0  2  0  0  0  0  0  0  0  0  0
   40.7713   -7.3927   41.2310 C   0  0  0  0  0  0  0  0  0  0  0  0
   43.3290   -7.8724   41.4705 C   0  0  1  0  0  0  0  0  0  0  0  0
   43.6189   -7.8988   43.6498 C   0  0  0  0  0  0  0  0  0  0  0  0
   44.8995   -8.2602   43.5069 C   0  0  0  0  0  0  0  0  0  0  0  0
   39.7200   -6.8079   40.7594 O   0  0  0  0  0  0  0  0  0  0  0  0
   44.4833   -8.2465   41.3523 C   0  0  0  0  0  0  0  0  0  0  0  0
   45.4259   -8.4217   42.3093 C   0  0  0  0  0  0  0  0  0  0  0  0
   42.0655   -7.6424   40.6385 N   0  0  0  0  0  0  0  0  0  0  0  0
   42.4170   -7.6620   39.1398 C   0  0  0  0  0  0  0  0  0  0  0  0
   41.6440   -7.0384   38.2656 O   0  0  0  0  0  0  0  0  0  0  0  0
   43.6769   -8.0095   38.6358 C   0  0  0  0  0  0  0  0  0  0  0  0
   45.0008   -8.5557   39.7685 S   0  0  0  0  0  0  0  0  0  0  0  0
  1  2  1  0
  2  3  1  0
  3  4  1  0
  1  5  1  0
  1  6  1  0
  4  7  1  0
  6  7  1  0
  4  8  1  0
  8  9  1  0
  8 10  1  0
  9 11  1  0
  9 12  1  1
 12 13  1  0
 10 14  2  0
 11 15  1  1
 13 16  1  0
 15 16  1  0
 10 17  1  0
 11 17  1  0
 17 18  1  0
 18 19  2  0
 18 20  1  0
 15 21  1  0
 20 21  1  0
M  END
$$$$
91
     RDKit          3D

 21 24  0  0  0  0  0  0  0  0999 V2000
   39.0195   -6.2743   45.8579 C   0  0  0  0  0  0  0  0  0  0  0  0
   38.5836   -6.0987   44.6776 C   0  0  0  0  0  0  0  0  0  0  0  0
   40.3654   -6.4925   46.0543 C   0  0  0  0  0  0  0  0  0  0  0  0
   39.2374   -6.3650   43.6879 C   0  0  0  0  0  0  0  0  0  0  0  0
   40.4437   -6.7429   43.7429 C   0  0  0  0  0  0  0  0  0  0  0  0
   41.1294   -6.8330   44.9817 C   0  0  2  0  0  0  0  0  0  0  0  0
   42.5883   -7.3381   45.1839 C   0  0  0  0  0  0  0  0  0  0  0  0
   41.4002   -7.1345   42.5257 C   0  0  1  0  0  0  0  0  0  0  0  0
   43.2116   -7.6975   43.9672 N   0  0  0  0  0  0  0  0  0  0  0  0
   44.5382   -8.1201   44.1434 C   0  0  0  0  0  0  0  0  0  0  0  0
   42.6690   -7.5895   42.7630 C   0  0  2  0  0  0  0  0  0  0  0  0
   40.7930   -7.1553   41.2373 N   0  0  0  0  0  0  0  0  0  0  0  0
   39.8196   -6.5597   40.7598 O   0  0  0  0  0  0  0  0  0  0  0  0
   43.4816   -7.6164   41.6582 N   0  0  0  0  0  0  0  0  0  0  0  0
   45.4453   -7.6780   43.2167 C   0  0  1  0  0  0  0  0  0  0  0  0
   46.8351   -7.9618   43.3522 C   0  0  0  0  0  0  0  0  0  0  0  0
   47.7332   -7.5686   42.4040 C   0  0  0  0  0  0  0  0  0  0  0  0
   47.2770   -7.0293   41.1975 C   0  0  0  0  0  0  0  0  0  0  0  0
   43.0811   -7.6793   46.2797 O   0  0  0  0  0  0  0  0  0  0  0  0
   45.0742   -7.2053   41.9570 C   0  0  1  0  0  0  0  0  0  0  0  0
   45.8828   -7.0029   40.9317 C   0  0  0  0  0  0  0  0  0  0  0  0
  1  2  1  0
  1  3  1  0
  2  4  1  0
  4  5  1  0
  6  3  1  1
  5  6  1  0
  6  7  1  0
  5  8  1  0
  7  9  1  0
  9 10  1  0
  8 11  1  0
  9 11  1  0
  8 12  1  1
 12 13  2  0
 11 14  1  6
 15 10  1  6
 15 16  1  0
 16 17  1  0
 17 18  1  0
  7 19  2  0
 14 20  1  0
 15 20  1  0
 18 21  1  0
 20 21  1  6
M  END
$$$$
92
     RDKit          3D

 21 22  0  0  0  0  0  0  0  0999 V2000
   39.0195   -6.2743   45.8579 C   0  0  0  0  0  0  0  0  0  0  0  0
   40.1440   -6.8196   45.9549 C   0  0  0  0  0  0  0  0  0  0  0  0
   38.4904   -5.9087   44.5778 C   0  0  0  0  0  0  0  0  0  0  0  0
   40.7790   -7.0229   44.8770 C   0  0  0  0  0  0  0  0  0  0  0  0
   39.1642   -6.2181   43.4505 C   0  0  2  0  0  0  0  0  0  0  0  0
   38.6707   -6.0593   42.1552 O   0  0  0  0  0  0  0  0  0  0  0  0
   40.4167   -6.8803   43.5080 C   0  0  1  0  0  0  0  0  0  0  0  0
   41.0928   -7.1749   42.3983 C   0  0  0  0  0  0  0  0  0  0  0  0
   42.4583   -7.5549   42.4418 N   0  0  0  0  0  0  0  0  0  0  0  0
   43.3215   -7.0961   43.3298 C   0  0  0  0  0  0  0  0  0  0  0  0
   42.9434   -8.5211   41.4154 C   0  0  0  0  0  0  0  0  0  0  0  0
   44.2782   -8.8342   41.6005 C   0  0  1  0  0  0  0  0  0  0  0  0
   44.8903   -9.8216   40.5728 C   0  0  0  0  0  0  0  0  0  0  0  0
   44.5730   -7.3190   43.0427 C   0  0  2  0  0  0  0  0  0  0  0  0
   44.4392   -9.8603   39.4420 O   0  0  0  0  0  0  0  0  0  0  0  0
   45.1367   -8.2491   42.3706 N   0  0  0  0  0  0  0  0  0  0  0  0
   45.4504   -6.6909   44.1757 C   0  0  0  0  0  0  0  0  0  0  0  0
   46.0628  -10.3703   40.8855 O   0  0  0  0  0  0  0  0  0  0  0  0
   40.5024   -7.2617   41.1665 O   0  0  0  0  0  0  0  0  0  0  0  0
   44.9953   -6.4403   45.3135 O   0  0  0  0  0  0  0  0  0  0  0  0
   46.6854   -6.3980   43.8318 O   0  0  0  0  0  0  0  0  0  0  0  0
  1  2  1  0
  1  3  1  0
  2  4  1  0
  3  5  1  0
  5  6  1  6
  4  7  1  0
  5  7  1  0
  7  8  1  6
  8  9  1  0
  9 10  1  0
  9 11  1  0
 11 12  1  0
 12 13  1  6
 10 14  1  0
 13 15  2  0
 12 16  1  0
 14 16  1  0
 14 17  1  1
 13 18  1  0
  8 19  2  0
 17 20  1  0
 17 21  2  0
M  END
$$$$
93
     RDKit          3D

 21 22  0  0  0  0  0  0  0  0999 V2000
   39.0195   -6.2743   45.8579 C   0  0  0  0  0  0  0  0  0  0  0  0
   38.5836   -6.0987   44.6776 C   0  0  0  0  0  0  0  0  0  0  0  0
   39.3190   -6.2929   43.5245 C   0  0  2  0  0  0  0  0  0  0  0  0
   40.2590   -6.8114   45.9323 C   0  0  0  0  0  0  0  0  0  0  0  0
   38.7628   -6.1563   42.1764 O   0  0  0  0  0  0  0  0  0  0  0  0
   39.5899   -6.8322   41.2761 C   0  0  0  0  0  0  0  0  0  0  0  0
   41.0870   -7.1398   44.9255 C   0  0  0  0  0  0  0  0  0  0  0  0
   40.5875   -6.9077   43.6968 C   0  0  2  0  0  0  0  0  0  0  0  0
   41.4988   -7.2788   42.5859 N   0  0  0  0  0  0  0  0  0  0  0  0
   42.6716   -7.6785   42.7530 C   0  0  0  0  0  0  0  0  0  0  0  0
   40.8334   -7.2441   41.3495 C   0  0  0  0  0  0  0  0  0  0  0  0
   43.7041   -7.0504   42.1209 N   0  0  0  0  0  0  0  0  0  0  0  0
   44.9690   -6.8990   42.4894 C   0  0  2  0  0  0  0  0  0  0  0  0
   43.0845   -8.5681   43.5769 O   0  0  0  0  0  0  0  0  0  0  0  0
   38.9559   -7.2944   40.0432 O   0  0  0  0  0  0  0  0  0  0  0  0
   45.3133   -5.7219   43.0451 C   0  0  0  0  0  0  0  0  0  0  0  0
   46.0553   -7.7299   42.1955 C   0  0  0  0  0  0  0  0  0  0  0  0
   45.8541   -8.9703   41.3461 O   0  0  0  0  0  0  0  0  0  0  0  0
   47.2336   -7.6880   42.6775 O   0  0  0  0  0  0  0  0  0  0  0  0
   46.0773   -8.9202   40.0031 C   0  0  0  0  0  0  0  0  0  0  0  0
   48.3527   -8.5023   42.4682 C   0  0  0  0  0  0  0  0  0  0  0  0
  1  2  1  0
  3  2  1  1
  1  4  1  0
  3  5  1  0
  5  6  1  0
  4  7  1  0
  3  8  1  0
  8  7  1  1
  8  9  1  0
  9 10  1  0
  6 11  1  0
  9 11  1  0
 10 12  1  0
 12 13  1  0
 10 14  2  0
  6 15  2  0
 13 16  1  6
 13 17  1  0
 17 18  1  0
 17 19  1  0
 18 20  1  0
 19 21  1  0
M  END
$$$$
94
     RDKit          3D

 21 23  0  0  0  0  0  0  0  0999 V2000
   39.7028   -4.5670   38.4672 O   0  0  0  0  0  0  0  0  0  0  0  0
   40.0270   -5.5643   37.8304 C   0  0  0  0  0  0  0  0  0  0  0  0
   39.7399   -5.7447   36.6337 O   0  0  0  0  0  0  0  0  0  0  0  0
   40.9023   -6.7000   38.3167 C   0  0  0  0  0  0  0  0  0  0  0  0
   42.0557   -6.9826   37.9138 N   0  0  0  0  0  0  0  0  0  0  0  0
   40.3316   -7.5907   39.3605 C   0  0  0  0  0  0  0  0  0  0  0  0
   42.9771   -7.7861   38.5233 C   0  0  1  0  0  0  0  0  0  0  0  0
   42.4572   -8.6146   39.5869 C   0  0  0  0  0  0  0  0  0  0  0  0
   41.1342   -8.4491   40.0185 C   0  0  0  0  0  0  0  0  0  0  0  0
   44.2658   -7.9859   38.1031 C   0  0  0  0  0  0  0  0  0  0  0  0
   44.5528   -8.6262   37.0637 O   0  0  0  0  0  0  0  0  0  0  0  0
   45.3417   -7.3952   38.7369 N   0  0  0  0  0  0  0  0  0  0  0  0
   46.7228   -7.4563   38.3491 C   0  0  0  0  0  0  0  0  0  0  0  0
   45.3391   -6.5617   40.0070 C   0  0  1  0  0  0  0  0  0  0  0  0
   47.5582   -6.9977   39.1228 C   0  0  0  0  0  0  0  0  0  0  0  0
   44.3684   -6.4726   40.7545 N   0  0  0  0  0  0  0  0  0  0  0  0
   46.9673   -6.3968   40.2625 C   0  0  2  0  0  0  0  0  0  0  0  0
   44.6422   -6.2592   42.1485 C   0  0  0  0  0  0  0  0  0  0  0  0
   43.6836   -6.3193   43.0862 N   0  0  0  0  0  0  0  0  0  0  0  0
   45.8400   -6.8772   42.6270 C   0  0  0  0  0  0  0  0  0  0  0  0
   46.9893   -6.6864   41.7755 C   0  0  0  0  0  0  0  0  0  0  0  0
  1  2  1  0
  2  3  2  0
  2  4  1  0
  4  5  1  0
  4  6  1  0
  5  7  1  0
  7  8  1  0
  6  9  1  0
  8  9  1  0
  7 10  1  6
 10 11  2  0
 10 12  1  0
 12 13  1  0
 12 14  1  0
 13 15  1  0
 14 16  1  1
 14 17  1  0
 17 15  1  6
 16 18  1  0
 18 19  1  0
 18 20  2  0
 17 21  1  0
 20 21  1  0
M  END
$$$$
95
     RDKit          3D

 22 23  0  0  0  0  0  0  0  0999 V2000
   39.9370   -5.0356   38.7551 O   0  0  0  0  0  0  0  0  0  0  0  0
   40.1679   -5.7768   38.0002 C   0  0  0  0  0  0  0  0  0  0  0  0
   40.8883   -6.9816   38.2343 C   0  0  0  0  0  0  0  0  0  0  0  0
   41.2062   -7.1545   39.6456 N   0  0  0  0  0  0  0  0  0  0  0  0
   40.4109   -7.3242   40.7227 C   0  0  0  0  0  0  0  0  0  0  0  0
   40.9990   -7.3076   41.9682 C   0  0  2  0  0  0  0  0  0  0  0  0
   40.3645   -6.8414   43.0958 C   0  0  0  0  0  0  0  0  0  0  0  0
   42.3517   -7.5210   42.0279 N   0  0  0  0  0  0  0  0  0  0  0  0
   39.8285   -5.6186   36.7039 O   0  0  0  0  0  0  0  0  0  0  0  0
   42.9625   -7.5682   43.2647 C   0  0  0  0  0  0  0  0  0  0  0  0
   42.3208   -7.2114   44.4252 C   0  0  1  0  0  0  0  0  0  0  0  0
   39.2629   -7.8770   40.5855 O   0  0  0  0  0  0  0  0  0  0  0  0
   40.9496   -6.8723   44.2717 C   0  0  0  0  0  0  0  0  0  0  0  0
   43.0306   -7.3704   45.6765 C   0  0  0  0  0  0  0  0  0  0  0  0
   42.3234   -7.3606   46.8639 C   0  0  0  0  0  0  0  0  0  0  0  0
   42.9851   -7.5213   48.1712 C   0  0  2  0  0  0  0  0  0  0  0  0
   42.3510   -7.2425   49.2134 N   0  0  0  0  0  0  0  0  0  0  0  0
   42.7673   -7.5941   50.4914 C   0  0  0  0  0  0  0  0  0  0  0  0
   44.4108   -7.7278   45.5110 C   0  0  0  0  0  0  0  0  0  0  0  0
   41.1231   -6.5080   49.2058 C   0  0  0  0  0  0  0  0  0  0  0  0
   45.2639   -7.6747   46.6546 C   0  0  0  0  0  0  0  0  0  0  0  0
   44.4686   -7.6229   48.0021 C   0  0  0  0  0  0  0  0  0  0  0  0
  1  2  1  0
  2  3  1  0
  3  4  1  0
  4  5  1  0
  6  5  1  6
  6  7  1  0
  6  8  1  0
  2  9  2  0
  8 10  1  0
 10 11  1  0
  5 12  2  0
  7 13  1  0
 11 13  1  0
 11 14  1  1
 14 15  2  0
 15 16  1  0
 16 17  1  1
 17 18  1  0
 14 19  1  0
 17 20  1  0
 19 21  1  0
 16 22  1  0
 21 22  1  0
M  END
$$$$
96
     RDKit          3D

 22 24  0  0  0  0  0  0  0  0999 V2000
   39.0195   -6.2743   45.8579 C   0  0  0  0  0  0  0  0  0  0  0  0
   40.1440   -6.8196   45.9549 C   0  0  0  0  0  0  0  0  0  0  0  0
   40.9150   -7.1632   44.8946 C   0  0  1  0  0  0  0  0  0  0  0  0
   38.6129   -6.0378   44.5493 C   0  0  0  0  0  0  0  0  0  0  0  0
   39.3003   -6.3710   43.4444 C   0  0  0  0  0  0  0  0  0  0  0  0
   40.5309   -6.9955   43.6652 C   0  0  0  0  0  0  0  0  0  0  0  0
   41.4220   -7.4610   42.4240 C   0  0  2  0  0  0  0  0  0  0  0  0
   42.7073   -7.6125   42.6152 N   0  0  0  0  0  0  0  0  0  0  0  0
   43.4739   -7.1489   43.6137 C   0  0  1  0  0  0  0  0  0  0  0  0
   42.3685   -7.6122   45.2765 C   0  0  0  0  0  0  0  0  0  0  0  0
   40.7340   -7.2644   41.1890 N   0  0  0  0  0  0  0  0  0  0  0  0
   41.1492   -8.1990   40.2126 C   0  0  0  0  0  0  0  0  0  0  0  0
   44.7214   -7.5517   43.9869 C   0  0  0  0  0  0  0  0  0  0  0  0
   45.7057   -6.5023   44.1533 C   0  0  0  0  0  0  0  0  0  0  0  0
   41.7815   -9.1095   40.3077 O   0  0  0  0  0  0  0  0  0  0  0  0
   40.4639   -8.0520   38.8165 C   0  0  0  0  0  0  0  0  0  0  0  0
   39.8585   -6.8033   38.5135 C   0  0  0  0  0  0  0  0  0  0  0  0
   45.2962   -8.2348   42.8910 C   0  0  0  0  0  0  0  0  0  0  0  0
   40.4097   -9.1082   37.9541 C   0  0  0  0  0  0  0  0  0  0  0  0
   39.7768   -8.9795   36.7008 C   0  0  0  0  0  0  0  0  0  0  0  0
   39.3415   -7.7349   36.4139 C   0  0  0  0  0  0  0  0  0  0  0  0
   39.3595   -6.7713   37.2051 C   0  0  0  0  0  0  0  0  0  0  0  0
  1  2  1  0
  3  2  1  1
  1  4  1  0
  4  5  1  0
  3  6  1  0
  5  6  1  0
  6  7  1  0
  7  8  1  0
  8  9  1  0
  3 10  1  0
  9 10  1  0
  7 11  1  6
 11 12  1  0
  9 13  1  1
 13 14  1  0
 12 15  2  0
 12 16  1  0
 16 17  1  0
 13 18  1  0
 16 19  1  0
 19 20  1  0
 20 21  1  0
 17 22  1  0
 21 22  1  0
M  END
$$$$
97
     RDKit          3D

 22 25  0  0  0  0  0  0  0  0999 V2000
   39.0195   -6.2743   45.8579 C   0  0  0  0  0  0  0  0  0  0  0  0
   38.5836   -6.0987   44.6776 C   0  0  0  0  0  0  0  0  0  0  0  0
   40.3654   -6.4925   46.0543 C   0  0  0  0  0  0  0  0  0  0  0  0
   39.2374   -6.3650   43.6879 C   0  0  0  0  0  0  0  0  0  0  0  0
   40.4437   -6.7429   43.7429 C   0  0  0  0  0  0  0  0  0  0  0  0
   41.1294   -6.8330   44.9817 C   0  0  2  0  0  0  0  0  0  0  0  0
   42.5883   -7.3381   45.1839 C   0  0  0  0  0  0  0  0  0  0  0  0
   41.4002   -7.1345   42.5257 C   0  0  1  0  0  0  0  0  0  0  0  0
   43.2116   -7.6975   43.9672 N   0  0  0  0  0  0  0  0  0  0  0  0
   44.5382   -8.1201   44.1434 C   0  0  0  0  0  0  0  0  0  0  0  0
   42.6690   -7.5895   42.7630 C   0  0  2  0  0  0  0  0  0  0  0  0
   40.7930   -7.1553   41.2373 N   0  0  0  0  0  0  0  0  0  0  0  0
   39.8196   -6.5597   40.7598 O   0  0  0  0  0  0  0  0  0  0  0  0
   43.4816   -7.6164   41.6582 N   0  0  0  0  0  0  0  0  0  0  0  0
   45.4453   -7.6780   43.2167 C   0  0  1  0  0  0  0  0  0  0  0  0
   46.8351   -7.9618   43.3522 C   0  0  0  0  0  0  0  0  0  0  0  0
   47.7332   -7.5686   42.4040 C   0  0  0  0  0  0  0  0  0  0  0  0
   47.2770   -7.0293   41.1975 C   0  0  2  0  0  0  0  0  0  0  0  0
   44.9648   -7.5623   41.8903 C   0  0  2  0  0  0  0  0  0  0  0  0
   45.8539   -7.0986   40.9120 C   0  0  0  0  0  0  0  0  0  0  0  0
   43.0167   -7.3829   46.3837 O   0  0  0  0  0  0  0  0  0  0  0  0
   48.2386   -6.6548   39.9124 Cl  0  0  0  0  0  0  0  0  0  0  0  0
  1  2  1  0
  1  3  1  0
  2  4  1  0
  4  5  1  0
  6  3  1  1
  5  6  1  0
  6  7  1  0
  5  8  1  0
  7  9  1  0
  9 10  1  0
  8 11  1  0
  9 11  1  0
  8 12  1  1
 12 13  2  0
 11 14  1  6
 15 10  1  6
 15 16  1  0
 16 17  1  0
 17 18  1  0
 14 19  1  0
 15 19  1  0
 18 20  1  0
 19 20  1  1
  7 21  2  0
 18 22  1  6
M  END
$$$$
98
     RDKit          3D

 22 24  0  0  0  0  0  0  0  0999 V2000
   38.6889   -6.3536   45.8793 C   0  0  0  0  0  0  0  0  0  0  0  0
   39.8810   -6.8633   46.1804 C   0  0  0  0  0  0  0  0  0  0  0  0
   38.5371   -6.2487   44.6191 C   0  0  0  0  0  0  0  0  0  0  0  0
   40.6538   -7.0528   45.2839 C   0  0  0  0  0  0  0  0  0  0  0  0
   40.5965   -6.8993   43.9698 C   0  0  1  0  0  0  0  0  0  0  0  0
   39.3351   -6.4480   43.6251 C   0  0  1  0  0  0  0  0  0  0  0  0
   39.0406   -6.3311   42.2145 O   0  0  0  0  0  0  0  0  0  0  0  0
   39.4266   -7.3287   41.2993 C   0  0  0  0  0  0  0  0  0  0  0  0
   42.2010   -7.6127   45.8595 C   0  0  0  0  0  0  0  0  0  0  0  0
   43.2150   -7.5100   44.9361 N   0  0  0  0  0  0  0  0  0  0  0  0
   44.5221   -7.4433   45.4559 C   0  0  0  0  0  0  0  0  0  0  0  0
   44.8042   -7.5348   46.6956 O   0  0  0  0  0  0  0  0  0  0  0  0
   38.7567   -8.3028   41.1523 O   0  0  0  0  0  0  0  0  0  0  0  0
   40.1953   -6.7337   40.1991 C   0  0  0  0  0  0  0  0  0  0  0  0
   39.5384   -5.8626   39.3169 O   0  0  0  0  0  0  0  0  0  0  0  0
   40.2490   -5.4569   38.1365 C   0  0  0  0  0  0  0  0  0  0  0  0
   45.6251   -6.9432   44.6605 C   0  0  0  0  0  0  0  0  0  0  0  0
   45.2526   -6.3970   43.3602 C   0  0  0  0  0  0  0  0  0  0  0  0
   46.1820   -6.3322   42.4067 O   0  0  0  0  0  0  0  0  0  0  0  0
   43.9487   -5.9952   43.2095 N   0  0  0  0  0  0  0  0  0  0  0  0
   43.0017   -7.2149   43.6690 C   0  0  2  0  0  0  0  0  0  0  0  0
   41.7135   -7.0251   43.0616 C   0  0  0  0  0  0  0  0  0  0  0  0
  1  2  1  0
  1  3  1  0
  2  4  1  0
  4  5  1  0
  3  6  1  0
  5  6  1  0
  6  7  1  6
  7  8  1  0
  4  9  1  0
  9 10  1  0
 10 11  1  0
 11 12  2  0
  8 13  2  0
  8 14  1  0
 14 15  1  0
 15 16  1  0
 11 17  1  0
 17 18  1  0
 18 19  2  0
 18 20  1  0
 10 21  1  0
 20 21  1  0
  5 22  1  1
 21 22  1  1
M  END
$$$$
99
     RDKit          3D

 22 24  0  0  0  0  0  0  0  0999 V2000
   38.6889   -6.3536   45.8793 C   0  0  0  0  0  0  0  0  0  0  0  0
   38.4999   -6.1582   44.6526 C   0  0  2  0  0  0  0  0  0  0  0  0
   40.0305   -6.5017   46.3332 C   0  0  1  0  0  0  0  0  0  0  0  0
   40.2685   -6.6031   47.8138 C   0  0  0  0  0  0  0  0  0  0  0  0
   37.1651   -5.9537   44.0291 C   0  0  0  0  0  0  0  0  0  0  0  0
   41.5687   -6.5163   48.3701 C   0  0  0  0  0  0  0  0  0  0  0  0
   42.6486   -6.6641   47.5352 C   0  0  2  0  0  0  0  0  0  0  0  0
   39.5632   -6.1801   43.6536 C   0  0  0  0  0  0  0  0  0  0  0  0
   42.5195   -6.9297   46.1362 C   0  0  0  0  0  0  0  0  0  0  0  0
   43.5855   -7.2783   45.3109 N   0  0  0  0  0  0  0  0  0  0  0  0
   41.1798   -6.8225   45.4911 C   0  0  2  0  0  0  0  0  0  0  0  0
   40.9143   -6.8507   44.0991 C   0  0  0  0  0  0  0  0  0  0  0  0
   44.8892   -7.3396   45.8462 C   0  0  1  0  0  0  0  0  0  0  0  0
   44.9912   -7.4695   47.0868 C   0  0  0  0  0  0  0  0  0  0  0  0
   43.9711   -7.0349   48.0391 C   0  0  0  0  0  0  0  0  0  0  0  0
   45.8571   -7.7445   44.9008 N   0  0  0  0  0  0  0  0  0  0  0  0
   46.1308   -6.8519   43.8276 C   0  0  0  0  0  0  0  0  0  0  0  0
   45.2234   -5.9119   43.5046 O   0  0  0  0  0  0  0  0  0  0  0  0
   44.6862   -6.1017   42.1770 C   0  0  0  0  0  0  0  0  0  0  0  0
   43.6934   -7.0835   42.0257 C   0  0  0  0  0  0  0  0  0  0  0  0
   43.3412   -7.4762   40.7286 O   0  0  0  0  0  0  0  0  0  0  0  0
   47.3564   -7.0312   43.3003 O   0  0  0  0  0  0  0  0  0  0  0  0
  1  2  1  0
  3  1  1  6
  3  4  1  0
  2  5  1  6
  4  6  1  0
  7  6  1  1
  2  8  1  0
  7  9  1  0
  9 10  1  0
  3 11  1  0
  9 11  1  0
  8 12  1  0
 11 12  1  6
 10 13  1  0
 13 14  1  0
  7 15  1  0
 14 15  1  0
 13 16  1  6
 16 17  1  0
 17 18  1  0
 18 19  1  0
 19 20  1  0
 20 21  1  0
 17 22  2  0
M  END
$$$$
