0
     RDKit          3D

 12 13  0  0  0  0  0  0  0  0999 V2000
   29.2001   11.3146   22.8705 N   0  0  0  0  0  0  0  0  0  0  0  0
   29.9444   12.0978   22.0872 C   0  0  2  0  0  0  0  0  0  0  0  0
   29.8047   10.7762   23.9056 C   0  0  0  0  0  0  0  0  0  0  0  0
   29.0833    9.9622   24.7872 N   0  0  0  0  0  0  0  0  0  0  0  0
   29.3834   12.6969   21.0041 N   0  0  0  0  0  0  0  0  0  0  0  0
   31.2042   10.8757   24.2602 N   0  0  0  0  0  0  0  0  0  0  0  0
   31.3574   12.3073   22.2456 C   0  0  2  0  0  0  0  0  0  0  0  0
   31.8428   11.6696   23.4058 C   0  0  0  0  0  0  0  0  0  0  0  0
   33.3282   11.9032   23.6621 C   0  0  0  0  0  0  0  0  0  0  0  0
   32.1032   13.0912   21.3995 C   0  0  0  0  0  0  0  0  0  0  0  0
   33.5053   13.1065   21.7773 C   0  0  0  0  0  0  0  0  0  0  0  0
   34.0208   12.5791   22.9115 C   0  0  0  0  0  0  0  0  0  0  0  0
  1  2  1  0
  1  3  1  0
  3  4  1  0
  2  5  1  6
  3  6  1  0
  2  7  1  0
  6  8  1  0
  7  8  1  0
  8  9  1  0
  7 10  1  1
 10 11  1  0
  9 12  1  0
 11 12  1  0
M  END
$$$$
1
     RDKit          3D

 12 13  0  0  0  0  0  0  0  0999 V2000
   30.6804   12.8394   21.1336 C   0  0  0  0  0  0  0  0  0  0  0  0
   31.8325   12.6790   21.7882 C   0  0  0  0  0  0  0  0  0  0  0  0
   32.0421   12.0051   22.9915 C   0  0  0  0  0  0  0  0  0  0  0  0
   29.5080   12.3058   21.7956 C   0  0  0  0  0  0  0  0  0  0  0  0
   28.3067   12.4827   21.1951 O   0  0  0  0  0  0  0  0  0  0  0  0
   29.6785   11.5728   23.0289 C   0  0  0  0  0  0  0  0  0  0  0  0
   28.5986   11.0410   23.6541 N   0  0  0  0  0  0  0  0  0  0  0  0
   30.9611   11.4497   23.5887 C   0  0  1  0  0  0  0  0  0  0  0  0
   33.6774   11.9689   23.5887 Cl  0  0  0  0  0  0  0  0  0  0  0  0
   28.7887   10.4851   24.8387 C   0  0  0  0  0  0  0  0  0  0  0  0
   30.9333   10.6362   24.7442 C   0  0  0  0  0  0  0  0  0  0  0  0
   29.9126   10.2561   25.2407 N   0  0  0  0  0  0  0  0  0  0  0  0
  1  2  1  0
  2  3  1  0
  1  4  1  0
  4  5  1  0
  4  6  1  0
  6  7  1  0
  3  8  1  0
  6  8  1  0
  3  9  1  0
  7 10  1  0
  8 11  1  6
 10 12  1  0
 11 12  1  0
M  END
$$$$
10
     RDKit          3D

 17 18  0  0  0  0  0  0  0  0999 V2000
   29.2737   10.4558   23.8011 C   0  0  1  0  0  0  0  0  0  0  0  0
   30.2888   10.0258   24.5823 C   0  0  2  0  0  0  0  0  0  0  0  0
   30.1677    9.2672   25.7047 O   0  0  0  0  0  0  0  0  0  0  0  0
   31.1220    9.3000   26.8409 C   0  0  0  0  0  0  0  0  0  0  0  0
   30.5822    8.5439   27.9081 C   0  0  0  0  0  0  0  0  0  0  0  0
   30.6037    7.1804   27.6019 O   0  0  0  0  0  0  0  0  0  0  0  0
   31.5734   10.6328   24.2512 C   0  0  1  0  0  0  0  0  0  0  0  0
   27.9766    9.9894   24.2549 O   0  0  0  0  0  0  0  0  0  0  0  0
   32.8063   10.2844   24.9673 O   0  0  0  0  0  0  0  0  0  0  0  0
   31.6377   11.4567   23.1013 C   0  0  1  0  0  0  0  0  0  0  0  0
   29.3657   11.4505   22.8206 C   0  0  0  0  0  0  0  0  0  0  0  0
   30.7311   11.7947   22.5270 C   0  0  1  0  0  0  0  0  0  0  0  0
   33.0414   12.1087   22.7148 C   0  0  1  0  0  0  0  0  0  0  0  0
   31.0852   12.7934   21.3727 C   0  0  2  0  0  0  0  0  0  0  0  0
   30.2843   13.2575   20.5018 O   0  0  0  0  0  0  0  0  0  0  0  0
   34.1541   11.9646   23.1424 C   0  0  0  0  0  0  0  0  0  0  0  0
   32.5281   12.8177   21.5606 N   0  0  0  0  0  0  0  0  0  0  0  0
  1  2  1  0
  2  3  1  1
  3  4  1  0
  4  5  1  0
  5  6  1  0
  2  7  1  0
  1  8  1  1
  7  9  1  6
  7 10  1  0
  1 11  1  0
 10 12  1  0
 12 11  1  1
 10 13  1  1
 12 14  1  0
 14 15  1  6
 13 16  1  6
 13 17  1  0
 14 17  1  0
M  END
$$$$
100
     RDKit          3D

 26 29  0  0  0  0  0  0  0  0999 V2000
   29.2592   12.1480   22.0997 C   0  0  0  0  0  0  0  0  0  0  0  0
   29.6030   11.4340   23.1202 N   0  0  0  0  0  0  0  0  0  0  0  0
   28.8378   10.7477   23.9266 N   0  0  0  0  0  0  0  0  0  0  0  0
   29.3489   10.1959   25.0666 C   0  0  0  0  0  0  0  0  0  0  0  0
   29.8629   12.8817   21.3541 C   0  0  0  0  0  0  0  0  0  0  0  0
   30.7950   10.1811   25.1469 C   0  0  0  0  0  0  0  0  0  0  0  0
   31.4751    9.4461   26.1942 N   0  0  0  0  0  0  0  0  0  0  0  0
   31.2436   12.6299   21.6128 C   0  0  0  0  0  0  0  0  0  0  0  0
   32.6622    8.8704   25.8949 C   0  0  2  0  0  0  0  0  0  0  0  0
   31.4745   10.9078   24.1592 C   0  0  0  0  0  0  0  0  0  0  0  0
   32.9944   10.9409   24.2755 C   0  0  2  0  0  0  0  0  0  0  0  0
   30.9616   11.5865   23.0251 C   0  0  1  0  0  0  0  0  0  0  0  0
   30.6189    9.0011   27.2926 C   0  0  0  0  0  0  0  0  0  0  0  0
   33.8404   11.6470   23.5464 C   0  0  0  0  0  0  0  0  0  0  0  0
   34.0777   12.9213   23.6466 C   0  0  0  0  0  0  0  0  0  0  0  0
   33.5253    9.6378   24.9906 C   0  0  0  0  0  0  0  0  0  0  0  0
   32.8519    7.4726   25.9440 C   0  0  0  0  0  0  0  0  0  0  0  0
   34.4817   11.0592   22.4602 O   0  0  0  0  0  0  0  0  0  0  0  0
   31.2140    8.1257   28.1189 C   0  0  0  0  0  0  0  0  0  0  0  0
   32.4474    7.2286   27.5128 C   0  0  1  0  0  0  0  0  0  0  0  0
   32.9599    6.2086   28.1774 O   0  0  0  0  0  0  0  0  0  0  0  0
   32.8167    5.9826   29.5263 C   0  0  0  0  0  0  0  0  0  0  0  0
   33.3294    4.8776   30.0106 C   0  0  0  0  0  0  0  0  0  0  0  0
   32.9993    4.4597   31.3501 C   0  0  0  0  0  0  0  0  0  0  0  0
   33.6020    3.3107   31.8569 C   0  0  0  0  0  0  0  0  0  0  0  0
   31.4912    4.3162   31.3379 C   0  0  0  0  0  0  0  0  0  0  0  0
  1  2  1  0
  2  3  1  0
  3  4  1  0
  1  5  1  0
  4  6  1  0
  6  7  1  0
  5  8  1  0
  7  9  1  0
  6 10  1  0
 10 11  1  0
  2 12  1  0
 12  8  1  1
 10 12  1  0
  7 13  1  0
 11 14  1  6
 14 15  1  0
  9 16  1  6
 11 16  1  0
  9 17  1  0
 14 18  2  0
 13 19  1  0
 17 20  1  0
 19 20  1  0
 20 21  1  6
 21 22  1  0
 22 23  1  0
 23 24  1  0
 24 25  1  0
 24 26  1  0
M  END
$$$$
101
     RDKit          3D

 26 29  0  0  0  0  0  0  0  0999 V2000
   29.3919   11.6711   22.3202 N   0  0  0  0  0  0  0  0  0  0  0  0
   29.9093   11.2007   23.3313 C   0  0  1  0  0  0  0  0  0  0  0  0
   30.0583   12.6248   21.5079 C   0  0  2  0  0  0  0  0  0  0  0  0
   29.4621   13.1455   20.4256 N   0  0  0  0  0  0  0  0  0  0  0  0
   31.4026   12.8235   21.8529 N   0  0  0  0  0  0  0  0  0  0  0  0
   31.9306   12.1757   22.8797 C   0  0  2  0  0  0  0  0  0  0  0  0
   29.3031   10.3172   24.1633 N   0  0  0  0  0  0  0  0  0  0  0  0
   31.2992   11.4246   23.6615 C   0  0  0  0  0  0  0  0  0  0  0  0
   31.6391   10.7436   24.8413 C   0  0  1  0  0  0  0  0  0  0  0  0
   33.4142   12.6760   22.9923 C   0  0  0  0  0  0  0  0  0  0  0  0
   34.2314   11.8664   23.6403 C   0  0  0  0  0  0  0  0  0  0  0  0
   34.8308   10.7354   22.8479 O   0  0  0  0  0  0  0  0  0  0  0  0
   30.3614   10.0657   25.1633 C   0  0  0  0  0  0  0  0  0  0  0  0
   30.2122    9.2364   26.4477 C   0  0  0  0  0  0  0  0  0  0  0  0
   35.1000    9.5447   23.4891 C   0  0  0  0  0  0  0  0  0  0  0  0
   31.1433    9.2185   27.2846 O   0  0  0  0  0  0  0  0  0  0  0  0
   29.1662    8.9282   26.6619 O   0  0  0  0  0  0  0  0  0  0  0  0
   33.8824    8.9528   23.9579 C   0  0  2  0  0  0  0  0  0  0  0  0
   32.9496    9.7709   24.7922 C   0  0  0  0  0  0  0  0  0  0  0  0
   33.9593    7.6475   24.6216 C   0  0  0  0  0  0  0  0  0  0  0  0
   34.0141    6.5290   23.8924 C   0  0  0  0  0  0  0  0  0  0  0  0
   34.4686    5.3988   24.4089 C   0  0  0  0  0  0  0  0  0  0  0  0
   34.5727    6.7336   22.5619 C   0  0  0  0  0  0  0  0  0  0  0  0
   34.6730    5.6566   21.7150 C   0  0  0  0  0  0  0  0  0  0  0  0
   34.6679    4.2239   23.6267 C   0  0  0  0  0  0  0  0  0  0  0  0
   34.8461    4.3647   22.2622 C   0  0  0  0  0  0  0  0  0  0  0  0
  2  1  1  6
  1  3  1  0
  3  4  1  6
  3  5  1  0
  5  6  1  0
  2  7  1  0
  2  8  1  0
  6  8  1  0
  8  9  1  0
  6 10  1  1
 10 11  1  0
 11 12  1  0
  7 13  1  0
  9 13  1  0
 13 14  1  0
 12 15  1  0
 14 16  2  0
 14 17  1  0
 15 18  1  0
  9 19  1  6
 18 19  1  0
 18 20  1  1
 20 21  1  0
 21 22  1  0
 21 23  1  0
 23 24  1  0
 22 25  1  0
 24 26  1  0
 25 26  1  0
M  END
$$$$
102
     RDKit          3D

 26 28  0  0  0  0  0  0  0  0999 V2000
   28.7206   10.5582   23.9916 N   0  0  0  0  0  0  0  0  0  0  0  0
   29.7889   10.7914   24.1286 C   0  0  0  0  0  0  0  0  0  0  0  0
   31.2099   10.7790   24.1403 C   0  0  1  0  0  0  0  0  0  0  0  0
   31.7586   11.8380   23.3111 C   0  0  1  0  0  0  0  0  0  0  0  0
   31.9340   10.1579   25.0881 C   0  0  0  0  0  0  0  0  0  0  0  0
   31.4217    9.1886   25.9180 C   0  0  1  0  0  0  0  0  0  0  0  0
   30.3945    9.3108   26.8314 C   0  0  0  0  0  0  0  0  0  0  0  0
   33.2002   11.9733   23.3846 C   0  0  0  0  0  0  0  0  0  0  0  0
   30.9964   12.6329   22.3269 C   0  0  2  0  0  0  0  0  0  0  0  0
   30.1756    8.3656   27.8072 N   0  0  0  0  0  0  0  0  0  0  0  0
   29.5534   10.3263   26.9402 O   0  0  0  0  0  0  0  0  0  0  0  0
   33.7544   12.9577   22.4918 C   0  0  0  0  0  0  0  0  0  0  0  0
   33.0115   13.5215   21.4947 C   0  0  0  0  0  0  0  0  0  0  0  0
   29.5555   12.3796   22.1957 C   0  0  0  0  0  0  0  0  0  0  0  0
   31.8298    7.7531   25.6317 C   0  0  2  0  0  0  0  0  0  0  0  0
   31.6508   13.3002   21.4301 C   0  0  0  0  0  0  0  0  0  0  0  0
   31.5640    6.7823   26.5953 N   0  0  0  0  0  0  0  0  0  0  0  0
   30.8256    7.0501   27.6530 C   0  0  0  0  0  0  0  0  0  0  0  0
   30.5698    6.2622   28.6052 O   0  0  0  0  0  0  0  0  0  0  0  0
   32.7588    7.4141   24.5351 C   0  0  0  0  0  0  0  0  0  0  0  0
   32.6841    6.4482   23.7453 C   0  0  0  0  0  0  0  0  0  0  0  0
   33.5471    6.2229   22.6435 C   0  0  0  0  0  0  0  0  0  0  0  0
   34.0682    8.1715   24.4139 C   0  0  0  0  0  0  0  0  0  0  0  0
   34.7368    6.9613   22.5815 C   0  0  0  0  0  0  0  0  0  0  0  0
   34.8980    7.8841   23.4684 C   0  0  0  0  0  0  0  0  0  0  0  0
   35.8308    6.5519   21.3635 C   0  0  0  0  0  0  0  0  0  0  0  0
  1  2  3  0
  3  2  1  1
  3  4  1  0
  3  5  1  0
  6  5  1  6
  6  7  1  0
  4  8  1  6
  4  9  1  0
  7 10  1  0
  7 11  2  0
  8 12  1  0
 12 13  1  0
  9 14  1  6
  6 15  1  0
  9 16  1  0
 13 16  1  0
 15 17  1  0
 10 18  1  0
 17 18  1  0
 18 19  2  0
 15 20  1  1
 20 21  1  0
 21 22  1  0
 20 23  1  0
 22 24  1  0
 23 25  1  0
 24 25  1  0
 24 26  1  0
M  END
$$$$
103
     RDKit          3D

 26 29  0  0  0  0  0  0  0  0999 V2000
   34.2800   12.5589   23.2846 C   0  0  0  0  0  0  0  0  0  0  0  0
   34.4152   11.3380   23.7858 C   0  0  0  0  0  0  0  0  0  0  0  0
   33.4984   10.4098   23.7437 C   0  0  1  0  0  0  0  0  0  0  0  0
   33.6876    9.0287   24.3144 C   0  0  2  0  0  0  0  0  0  0  0  0
   32.7339    8.2887   24.8895 N   0  0  0  0  0  0  0  0  0  0  0  0
   32.0946   10.6836   23.4931 C   0  0  0  0  0  0  0  0  0  0  0  0
   34.9322    8.3759   24.3812 N   0  0  0  0  0  0  0  0  0  0  0  0
   31.3086    8.6655   24.7277 C   0  0  0  0  0  0  0  0  0  0  0  0
   32.7743    6.9931   25.6519 C   0  0  0  0  0  0  0  0  0  0  0  0
   30.3477    7.9431   25.3038 O   0  0  0  0  0  0  0  0  0  0  0  0
   31.0086    9.7818   23.8947 C   0  0  1  0  0  0  0  0  0  0  0  0
   32.9089   12.8907   22.8499 C   0  0  0  0  0  0  0  0  0  0  0  0
   33.9119    7.2705   26.6830 C   0  0  2  0  0  0  0  0  0  0  0  0
   35.0046    6.9810   24.2592 C   0  0  0  0  0  0  0  0  0  0  0  0
   35.0630    6.7345   25.8021 C   0  0  0  0  0  0  0  0  0  0  0  0
   31.8752   11.9245   22.8511 C   0  0  2  0  0  0  0  0  0  0  0  0
   29.6839   10.1481   23.6922 C   0  0  0  0  0  0  0  0  0  0  0  0
   29.5468   11.3532   22.8981 N   0  0  0  0  0  0  0  0  0  0  0  0
   30.4940   12.1207   22.5169 C   0  0  0  0  0  0  0  0  0  0  0  0
   30.0625   13.2947   21.5968 C   0  0  0  0  0  0  0  0  0  0  0  0
   33.4439    6.4463   27.8234 N   0  0  0  0  0  0  0  0  0  0  0  0
   32.4435    7.0111   28.6834 C   0  0  0  0  0  0  0  0  0  0  0  0
   34.4358    6.0349   28.8407 C   0  0  0  0  0  0  0  0  0  0  0  0
   35.2975    5.0732   28.4992 C   0  0  0  0  0  0  0  0  0  0  0  0
   34.7304    3.8462   28.9013 C   0  0  0  0  0  0  0  0  0  0  0  0
   31.8300    6.0582   29.5259 C   0  0  0  0  0  0  0  0  0  0  0  0
  1  2  1  0
  3  2  1  1
  3  4  1  0
  4  5  1  0
  3  6  1  0
  4  7  1  1
  5  8  1  0
  5  9  1  0
  8 10  2  0
  6 11  1  0
  8 11  1  0
  1 12  1  0
  9 13  1  0
  7 14  1  0
 13 15  1  0
 14 15  1  0
  6 16  1  0
 16 12  1  1
 11 17  1  1
 17 18  1  0
 16 19  1  0
 18 19  1  0
 19 20  1  0
 13 21  1  1
 21 22  1  0
 21 23  1  0
 23 24  1  0
 24 25  1  0
 22 26  1  0
M  END
$$$$
104
     RDKit          3D

 26 31  0  0  0  0  0  0  0  0999 V2000
   29.2592   12.1480   22.0997 C   0  0  0  0  0  0  0  0  0  0  0  0
   29.6030   11.4340   23.1202 N   0  0  0  0  0  0  0  0  0  0  0  0
   28.8378   10.7477   23.9266 N   0  0  0  0  0  0  0  0  0  0  0  0
   29.3489   10.1959   25.0666 C   0  0  1  0  0  0  0  0  0  0  0  0
   29.8629   12.8817   21.3541 C   0  0  0  0  0  0  0  0  0  0  0  0
   30.7950   10.1811   25.1469 C   0  0  1  0  0  0  0  0  0  0  0  0
   31.4751    9.4461   26.1942 N   0  0  0  0  0  0  0  0  0  0  0  0
   31.2436   12.6299   21.6128 C   0  0  0  0  0  0  0  0  0  0  0  0
   32.6622    8.8704   25.8949 C   0  0  1  0  0  0  0  0  0  0  0  0
   31.6138   10.6931   24.1775 C   0  0  1  0  0  0  0  0  0  0  0  0
   30.6471    9.0508   27.0534 C   0  0  2  0  0  0  0  0  0  0  0  0
   28.6121    9.8776   26.3444 C   0  0  0  0  0  0  0  0  0  0  0  0
   30.9913   11.3666   23.1754 C   0  0  2  0  0  0  0  0  0  0  0  0
   31.8067   12.0046   22.3690 C   0  0  0  0  0  0  0  0  0  0  0  0
   29.3623    9.2923   27.2495 N   0  0  0  0  0  0  0  0  0  0  0  0
   33.4868    9.0926   25.0021 O   0  0  0  0  0  0  0  0  0  0  0  0
   27.4931   10.1029   26.5474 O   0  0  0  0  0  0  0  0  0  0  0  0
   33.1478   10.6157   24.2604 C   0  0  2  0  0  0  0  0  0  0  0  0
   33.6041   11.7102   24.8967 C   0  0  0  0  0  0  0  0  0  0  0  0
   31.4968    8.2612   27.9621 C   0  0  2  0  0  0  0  0  0  0  0  0
   32.7305    7.9964   27.1737 C   0  0  2  0  0  0  0  0  0  0  0  0
   33.8809    7.2444   27.6043 C   0  0  0  0  0  0  0  0  0  0  0  0
   33.9430    6.8539   28.8816 C   0  0  1  0  0  0  0  0  0  0  0  0
   32.6861    6.9192   29.6548 C   0  0  0  0  0  0  0  0  0  0  0  0
   31.4460    7.4956   29.1827 C   0  0  0  0  0  0  0  0  0  0  0  0
   35.0562    6.1309   29.4032 N   0  0  0  0  0  0  0  0  0  0  0  0
  1  2  1  0
  2  3  1  0
  4  3  1  1
  1  5  1  0
  4  6  1  0
  6  7  1  6
  5  8  1  0
  7  9  1  0
  6 10  1  0
  7 11  1  0
  4 12  1  0
  2 13  1  0
 10 13  1  0
  8 14  1  0
 13 14  1  1
 11 15  1  1
 12 15  1  0
  9 16  1  1
 12 17  2  0
 10 18  1  1
 16 18  1  0
 18 19  1  1
 11 20  1  0
  9 21  1  0
 20 21  1  0
 21 22  1  1
 22 23  1  0
 23 24  1  0
 20 25  1  6
 24 25  1  0
 23 26  1  6
M  END
$$$$
105
     RDKit          3D

 26 29  0  0  0  0  0  0  0  0999 V2000
   30.6804   12.8394   21.1336 C   0  0  0  0  0  0  0  0  0  0  0  0
   31.8325   12.6790   21.7882 C   0  0  0  0  0  0  0  0  0  0  0  0
   32.0421   12.0051   22.9915 C   0  0  0  0  0  0  0  0  0  0  0  0
   29.5080   12.3058   21.7956 C   0  0  0  0  0  0  0  0  0  0  0  0
   28.3067   12.4827   21.1951 O   0  0  0  0  0  0  0  0  0  0  0  0
   29.6785   11.5728   23.0289 C   0  0  0  0  0  0  0  0  0  0  0  0
   28.5986   11.0410   23.6541 N   0  0  0  0  0  0  0  0  0  0  0  0
   30.9611   11.4497   23.5887 C   0  0  0  0  0  0  0  0  0  0  0  0
   33.6774   11.9689   23.5887 Cl  0  0  0  0  0  0  0  0  0  0  0  0
   28.7887   10.4851   24.8387 C   0  0  0  0  0  0  0  0  0  0  0  0
   30.0968   10.2841   25.3522 C   0  0  1  0  0  0  0  0  0  0  0  0
   31.0228   10.7016   24.8139 C   0  0  0  0  0  0  0  0  0  0  0  0
   30.1789    9.5121   26.7917 C   0  0  0  0  0  0  0  0  0  0  0  0
   31.0882    8.6733   26.9078 N   0  0  0  0  0  0  0  0  0  0  0  0
   29.1918    9.4914   27.5910 O   0  0  0  0  0  0  0  0  0  0  0  0
   32.2024    8.4844   25.9726 C   0  0  0  0  0  0  0  0  0  0  0  0
   31.2061    7.8578   28.0455 C   0  0  0  0  0  0  0  0  0  0  0  0
   32.5458    7.2704   28.2174 C   0  0  1  0  0  0  0  0  0  0  0  0
   32.8125    6.2142   28.9562 C   0  0  0  0  0  0  0  0  0  0  0  0
   32.9437    7.2287   26.7361 C   0  0  0  0  0  0  0  0  0  0  0  0
   34.0112    6.0800   29.5179 C   0  0  0  0  0  0  0  0  0  0  0  0
   31.6972    5.9935   30.1026 C   0  0  0  0  0  0  0  0  0  0  0  0
   34.3804    4.7756   30.1815 C   0  0  0  0  0  0  0  0  0  0  0  0
   31.9958    4.6351   30.8499 C   0  0  0  0  0  0  0  0  0  0  0  0
   33.3366    4.4249   31.2458 N   0  0  0  0  0  0  0  0  0  0  0  0
   33.3892    3.1169   31.8501 C   0  0  0  0  0  0  0  0  0  0  0  0
  1  2  1  0
  2  3  1  0
  1  4  1  0
  4  5  1  0
  4  6  1  0
  6  7  1  0
  3  8  1  0
  6  8  1  0
  3  9  1  0
  7 10  1  0
 10 11  1  0
  8 12  1  0
 11 12  1  0
 11 13  1  1
 13 14  1  0
 13 15  2  0
 14 16  1  0
 14 17  1  0
 17 18  1  0
 18 19  1  6
 16 20  1  0
 18 20  1  0
 19 21  1  0
 19 22  1  0
 21 23  1  0
 22 24  1  0
 23 25  1  0
 24 25  1  0
 25 26  1  0
M  END
$$$$
106
     RDKit          3D

 26 29  0  0  0  0  0  0  0  0999 V2000
   29.2592   12.1480   22.0997 C   0  0  0  0  0  0  0  0  0  0  0  0
   29.6030   11.4340   23.1202 N   0  0  0  0  0  0  0  0  0  0  0  0
   30.1466   12.8003   21.2957 C   0  0  0  0  0  0  0  0  0  0  0  0
   30.9133   11.3828   23.4912 C   0  0  1  0  0  0  0  0  0  0  0  0
   31.3706   10.6492   24.6187 N   0  0  0  0  0  0  0  0  0  0  0  0
   31.8974   12.0160   22.6900 C   0  0  0  0  0  0  0  0  0  0  0  0
   31.4897   12.7545   21.5715 C   0  0  0  0  0  0  0  0  0  0  0  0
   33.1952   11.6697   23.2709 C   0  0  1  0  0  0  0  0  0  0  0  0
   34.4293   12.0810   22.8999 O   0  0  0  0  0  0  0  0  0  0  0  0
   32.8225   10.8518   24.4693 C   0  0  0  0  0  0  0  0  0  0  0  0
   30.6611   10.2366   25.6713 C   0  0  0  0  0  0  0  0  0  0  0  0
   35.4410   11.3691   23.5932 C   0  0  0  0  0  0  0  0  0  0  0  0
   31.0490    9.0346   26.2460 C   0  0  1  0  0  0  0  0  0  0  0  0
   29.3551   10.5784   25.6963 O   0  0  0  0  0  0  0  0  0  0  0  0
   32.1162    8.2201   25.8543 C   0  0  2  0  0  0  0  0  0  0  0  0
   32.5038    8.0282   24.6066 O   0  0  0  0  0  0  0  0  0  0  0  0
   33.1193    6.8546   24.2234 C   0  0  0  0  0  0  0  0  0  0  0  0
   32.8286    7.4096   26.8060 C   0  0  1  0  0  0  0  0  0  0  0  0
   33.9520    6.7219   26.4579 O   0  0  0  0  0  0  0  0  0  0  0  0
   34.0188    6.5276   25.1173 C   0  0  0  0  0  0  0  0  0  0  0  0
   32.6660    7.6493   28.2106 C   0  0  2  0  0  0  0  0  0  0  0  0
   33.2325    6.7919   29.1619 C   0  0  0  0  0  0  0  0  0  0  0  0
   30.5413    8.8870   27.5570 C   0  0  0  0  0  0  0  0  0  0  0  0
   31.1531    8.1563   28.4184 C   0  0  0  0  0  0  0  0  0  0  0  0
   32.5679    6.1518   30.0305 O   0  0  0  0  0  0  0  0  0  0  0  0
   34.5691    6.8087   29.2649 O   0  0  0  0  0  0  0  0  0  0  0  0
  1  2  1  0
  1  3  1  0
  4  2  1  6
  4  5  1  0
  4  6  1  0
  3  7  1  0
  6  7  1  0
  6  8  1  0
  8  9  1  1
  5 10  1  0
  8 10  1  0
  5 11  1  0
  9 12  1  0
 13 11  1  1
 11 14  2  0
 13 15  1  0
 15 16  1  6
 16 17  1  0
 15 18  1  0
 18 19  1  6
 17 20  1  0
 19 20  1  0
 18 21  1  0
 21 22  1  1
 13 23  1  0
 21 24  1  0
 23 24  1  0
 22 25  2  0
 22 26  1  0
M  END
$$$$
107
     RDKit          3D

 26 30  0  0  0  0  0  0  0  0999 V2000
   29.2592   12.1480   22.0997 N   0  0  0  0  0  0  0  0  0  0  0  0
   29.9475   11.5788   22.9692 C   0  0  1  0  0  0  0  0  0  0  0  0
   29.5900   10.6653   23.8593 N   0  0  0  0  0  0  0  0  0  0  0  0
   30.1064   10.1937   24.9846 C   0  0  1  0  0  0  0  0  0  0  0  0
   31.3865   11.6816   23.1267 C   0  0  1  0  0  0  0  0  0  0  0  0
   29.6145    9.3399   25.9049 O   0  0  0  0  0  0  0  0  0  0  0  0
   31.9876   12.6887   22.1472 C   0  0  0  0  0  0  0  0  0  0  0  0
   32.1168   11.1691   24.2245 C   0  0  2  0  0  0  0  0  0  0  0  0
   33.5163   11.5818   24.3382 C   0  0  0  0  0  0  0  0  0  0  0  0
   30.2891    9.0225   27.1162 C   0  0  1  0  0  0  0  0  0  0  0  0
   31.5033   12.9032   21.1300 O   0  0  0  0  0  0  0  0  0  0  0  0
   29.8051    8.2034   27.9192 O   0  0  0  0  0  0  0  0  0  0  0  0
   31.5473   10.2808   25.0712 C   0  0  1  0  0  0  0  0  0  0  0  0
   31.9687    9.5536   26.3036 C   0  0  2  0  0  0  0  0  0  0  0  0
   30.6217    6.8699   27.6035 C   0  0  0  0  0  0  0  0  0  0  0  0
   32.3906    8.2275   26.1790 N   0  0  0  0  0  0  0  0  0  0  0  0
   33.8460    8.1400   25.9441 C   0  0  0  0  0  0  0  0  0  0  0  0
   34.3187    6.8070   26.2024 C   0  0  0  0  0  0  0  0  0  0  0  0
   32.1278    7.1790   27.1218 C   0  0  2  0  0  0  0  0  0  0  0  0
   33.3023    6.3413   27.2579 C   0  0  2  0  0  0  0  0  0  0  0  0
   34.0889   12.3526   23.3384 C   0  0  0  0  0  0  0  0  0  0  0  0
   33.8890    6.5845   28.6063 C   0  0  0  0  0  0  0  0  0  0  0  0
   33.4097   12.8042   22.2952 C   0  0  0  0  0  0  0  0  0  0  0  0
   33.8251    7.5195   29.2470 O   0  0  0  0  0  0  0  0  0  0  0  0
   34.5816    5.5589   29.1198 N   0  0  0  0  0  0  0  0  0  0  0  0
   34.9984    4.3728   28.4958 C   0  0  0  0  0  0  0  0  0  0  0  0
  2  1  1  6
  2  3  1  0
  4  3  1  6
  2  5  1  0
  4  6  1  0
  5  7  1  1
  5  8  1  0
  8  9  1  6
 10  6  1  6
  7 11  2  0
 10 12  1  0
 13  4  1  1
  8 13  1  0
 10 14  1  0
 13 14  1  0
 12 15  1  0
 14 16  1  6
 16 17  1  0
 17 18  1  0
 19 15  1  6
 16 19  1  0
 18 20  1  0
 19 20  1  0
  9 21  1  0
 20 22  1  1
  7 23  1  0
 21 23  1  0
 22 24  2  0
 22 25  1  0
 25 26  1  0
M  END
$$$$
108
     RDKit          3D

 26 30  0  0  0  0  0  0  0  0999 V2000
   29.3919   11.6711   22.3202 N   0  0  0  0  0  0  0  0  0  0  0  0
   29.9093   11.2007   23.3313 C   0  0  2  0  0  0  0  0  0  0  0  0
   31.3391   11.4615   23.3786 C   0  0  0  0  0  0  0  0  0  0  0  0
   30.0006   12.5610   21.4541 C   0  0  0  0  0  0  0  0  0  0  0  0
   32.0211   12.2673   22.4984 C   0  0  1  0  0  0  0  0  0  0  0  0
   31.2784   12.8441   21.4500 C   0  0  0  0  0  0  0  0  0  0  0  0
   33.4611   12.6205   22.6363 C   0  0  0  0  0  0  0  0  0  0  0  0
   29.4247   10.4269   24.3038 C   0  0  2  0  0  0  0  0  0  0  0  0
   28.0983   10.2523   24.4737 O   0  0  0  0  0  0  0  0  0  0  0  0
   30.2645    9.8721   25.3320 C   0  0  1  0  0  0  0  0  0  0  0  0
   32.1283   10.8687   24.4648 C   0  0  2  0  0  0  0  0  0  0  0  0
   33.5826   11.0369   24.4631 C   0  0  0  0  0  0  0  0  0  0  0  0
   34.1158   12.0112   23.5829 C   0  0  0  0  0  0  0  0  0  0  0  0
   31.5876   10.0988   25.4264 C   0  0  2  0  0  0  0  0  0  0  0  0
   29.5155    9.4033   26.5673 O   0  0  0  0  0  0  0  0  0  0  0  0
   30.2432    8.8521   27.6206 C   0  0  1  0  0  0  0  0  0  0  0  0
   29.9896    7.6828   27.9464 C   0  0  0  0  0  0  0  0  0  0  0  0
   31.2308    6.9107   27.5330 O   0  0  0  0  0  0  0  0  0  0  0  0
   32.4457    7.4551   27.6688 C   0  0  1  0  0  0  0  0  0  0  0  0
   33.5320    6.7653   27.9928 C   0  0  0  0  0  0  0  0  0  0  0  0
   32.2452    8.8432   27.2955 C   0  0  1  0  0  0  0  0  0  0  0  0
   32.4230    9.3402   26.3326 C   0  0  0  0  0  0  0  0  0  0  0  0
   34.1041    6.9704   29.2289 O   0  0  0  0  0  0  0  0  0  0  0  0
   33.9001    5.6603   27.5141 O   0  0  0  0  0  0  0  0  0  0  0  0
   35.0094    4.8300   27.9741 C   0  0  0  0  0  0  0  0  0  0  0  0
   31.3276    9.2891   28.1659 C   0  0  0  0  0  0  0  0  0  0  0  0
  2  1  1  6
  2  3  1  0
  1  4  1  0
  3  5  1  0
  4  6  1  0
  5  6  1  1
  5  7  1  0
  2  8  1  0
  8  9  1  1
  8 10  1  0
  3 11  1  0
 11 12  1  6
  7 13  1  0
 12 13  1  0
 10 14  1  0
 11 14  1  0
 10 15  1  1
 15 16  1  0
 16 17  1  6
 17 18  1  0
 18 19  1  0
 19 20  1  6
 19 21  1  0
 14 22  1  6
 21 22  1  6
 20 23  2  0
 20 24  1  0
 24 25  1  0
 16 26  1  0
 21 26  1  0
M  END
$$$$
109
     RDKit          3D

 26 28  0  0  0  0  0  0  0  0999 V2000
   30.6804   12.8394   21.1336 C   0  0  0  0  0  0  0  0  0  0  0  0
   31.8325   12.6790   21.7882 C   0  0  0  0  0  0  0  0  0  0  0  0
   32.0421   12.0051   22.9915 C   0  0  0  0  0  0  0  0  0  0  0  0
   29.5080   12.3058   21.7956 C   0  0  0  0  0  0  0  0  0  0  0  0
   28.3067   12.4827   21.1951 O   0  0  0  0  0  0  0  0  0  0  0  0
   29.6785   11.5728   23.0289 C   0  0  0  0  0  0  0  0  0  0  0  0
   28.5986   11.0410   23.6541 N   0  0  0  0  0  0  0  0  0  0  0  0
   30.9611   11.4497   23.5887 C   0  0  0  0  0  0  0  0  0  0  0  0
   33.6774   11.9689   23.5887 Cl  0  0  0  0  0  0  0  0  0  0  0  0
   28.7887   10.4851   24.8387 C   0  0  0  0  0  0  0  0  0  0  0  0
   30.0968   10.2841   25.3522 C   0  0  1  0  0  0  0  0  0  0  0  0
   31.0228   10.7016   24.8139 C   0  0  0  0  0  0  0  0  0  0  0  0
   30.1789    9.5121   26.7917 C   0  0  0  0  0  0  0  0  0  0  0  0
   29.5564    9.9170   27.7388 O   0  0  0  0  0  0  0  0  0  0  0  0
   31.1336    8.5601   26.9205 N   0  0  0  0  0  0  0  0  0  0  0  0
   31.3440    7.8511   28.0715 C   0  0  0  0  0  0  0  0  0  0  0  0
   30.8844    6.5409   27.9242 O   0  0  0  0  0  0  0  0  0  0  0  0
   32.2922    8.0523   28.9904 C   0  0  0  0  0  0  0  0  0  0  0  0
   32.6945    6.9224   29.8532 C   0  0  2  0  0  0  0  0  0  0  0  0
   33.9053    6.2053   29.4181 C   0  0  0  0  0  0  0  0  0  0  0  0
   34.4515    6.5499   28.3089 O   0  0  0  0  0  0  0  0  0  0  0  0
   34.4496    5.2997   30.2425 N   0  0  0  0  0  0  0  0  0  0  0  0
   33.6134    4.4487   30.9809 C   0  0  0  0  0  0  0  0  0  0  0  0
   35.8417    4.8532   30.0947 C   0  0  0  0  0  0  0  0  0  0  0  0
   32.1680    4.7344   31.0012 C   0  0  0  0  0  0  0  0  0  0  0  0
   31.8842    6.1441   30.6953 C   0  0  0  0  0  0  0  0  0  0  0  0
  1  2  1  0
  2  3  1  0
  1  4  1  0
  4  5  1  0
  4  6  1  0
  6  7  1  0
  3  8  1  0
  6  8  1  0
  3  9  1  0
  7 10  1  0
 10 11  1  0
  8 12  1  0
 11 12  1  0
 11 13  1  1
 13 14  2  0
 13 15  1  0
 15 16  1  0
 16 17  2  0
 16 18  1  0
 19 18  1  6
 19 20  1  0
 20 21  2  0
 20 22  1  0
 22 23  1  0
 22 24  1  0
 23 25  1  0
 19 26  1  0
 25 26  1  0
M  END
$$$$
11
     RDKit          3D

 18 20  0  0  0  0  0  0  0  0999 V2000
   29.4509   11.5024   22.9892 C   0  0  0  0  0  0  0  0  0  0  0  0
   29.6901   10.8300   23.9873 C   0  0  1  0  0  0  0  0  0  0  0  0
   30.3304   12.1704   22.4184 C   0  0  0  0  0  0  0  0  0  0  0  0
   31.0090   10.7495   24.5355 C   0  0  0  0  0  0  0  0  0  0  0  0
   32.0012   11.5651   23.9075 C   0  0  1  0  0  0  0  0  0  0  0  0
   33.3529   11.5560   24.3128 C   0  0  0  0  0  0  0  0  0  0  0  0
   31.6133   12.2482   22.7233 C   0  0  2  0  0  0  0  0  0  0  0  0
   32.6188   13.0418   22.0279 C   0  0  0  0  0  0  0  0  0  0  0  0
   34.2781   12.4126   23.5534 C   0  0  0  0  0  0  0  0  0  0  0  0
   28.7090    9.9975   24.9162 C   0  0  0  0  0  0  0  0  0  0  0  0
   31.0737    9.8330   25.6971 C   0  0  0  0  0  0  0  0  0  0  0  0
   29.5772    9.4481   25.9423 N   0  0  0  0  0  0  0  0  0  0  0  0
   32.0221    9.3328   26.3809 O   0  0  0  0  0  0  0  0  0  0  0  0
   29.2101    8.6609   27.1535 C   0  0  0  0  0  0  0  0  0  0  0  0
   33.9216   13.0237   22.5049 C   0  0  0  0  0  0  0  0  0  0  0  0
   29.8070   13.0587   21.0332 C   0  0  0  0  0  0  0  0  0  0  0  0
   30.0442    7.7927   27.5265 O   0  0  0  0  0  0  0  0  0  0  0  0
   28.1271    9.1320   27.6536 O   0  0  0  0  0  0  0  0  0  0  0  0
  2  1  1  1
  1  3  1  0
  2  4  1  0
  4  5  1  0
  5  6  1  6
  3  7  1  0
  5  7  1  0
  7  8  1  1
  6  9  1  0
  2 10  1  0
  4 11  1  0
 10 12  1  0
 11 12  1  0
 11 13  2  0
 12 14  1  0
  8 15  1  0
  9 15  1  0
  3 16  1  0
 14 17  1  0
 14 18  2  0
M  END
$$$$
110
     RDKit          3D

 26 30  0  0  0  0  0  0  0  0999 V2000
   30.6804   12.8394   21.1336 C   0  0  0  0  0  0  0  0  0  0  0  0
   31.8325   12.6790   21.7882 C   0  0  2  0  0  0  0  0  0  0  0  0
   33.0447   13.1452   21.2602 C   0  0  0  0  0  0  0  0  0  0  0  0
   31.8973   11.9038   23.0333 C   0  0  0  0  0  0  0  0  0  0  0  0
   29.4892   12.2818   21.9263 C   0  0  0  0  0  0  0  0  0  0  0  0
   29.5979   11.5327   22.9939 C   0  0  0  0  0  0  0  0  0  0  0  0
   30.8007   11.3796   23.6119 C   0  0  1  0  0  0  0  0  0  0  0  0
   30.7946   10.5767   24.7656 C   0  0  2  0  0  0  0  0  0  0  0  0
   31.9342    9.8381   25.2004 C   0  0  2  0  0  0  0  0  0  0  0  0
   33.2478   11.6854   23.7357 C   0  0  0  0  0  0  0  0  0  0  0  0
   32.0263    9.1243   26.3308 N   0  0  0  0  0  0  0  0  0  0  0  0
   33.2266   10.6021   24.7221 C   0  0  0  0  0  0  0  0  0  0  0  0
   29.6003   10.1190   25.4852 C   0  0  0  0  0  0  0  0  0  0  0  0
   29.7351    9.4034   26.6723 C   0  0  2  0  0  0  0  0  0  0  0  0
   33.2897    8.4627   26.5423 C   0  0  0  0  0  0  0  0  0  0  0  0
   30.9102    8.8061   27.0316 C   0  0  1  0  0  0  0  0  0  0  0  0
   28.6368    9.1190   27.4023 O   0  0  0  0  0  0  0  0  0  0  0  0
   33.1555    7.3760   27.5654 C   0  0  0  0  0  0  0  0  0  0  0  0
   31.0191    7.7157   27.8300 C   0  0  0  0  0  0  0  0  0  0  0  0
   32.0836    7.1005   28.2025 N   0  0  0  0  0  0  0  0  0  0  0  0
   34.2872    6.5799   27.8759 C   0  0  2  0  0  0  0  0  0  0  0  0
   34.6809    5.5674   27.0414 N   0  0  0  0  0  0  0  0  0  0  0  0
   34.4208    5.9562   29.1553 C   0  0  0  0  0  0  0  0  0  0  0  0
   35.3251    4.9085   29.0662 C   0  0  0  0  0  0  0  0  0  0  0  0
   34.5053    5.6150   25.6547 C   0  0  0  0  0  0  0  0  0  0  0  0
   35.2164    4.4871   27.6701 C   0  0  0  0  0  0  0  0  0  0  0  0
  1  2  1  0
  2  3  1  6
  2  4  1  0
  1  5  1  0
  5  6  1  0
  4  7  1  0
  7  6  1  6
  7  8  1  0
  8  9  1  0
  4 10  1  0
  9 11  1  0
  9 12  1  1
 10 12  1  0
  8 13  1  6
 13 14  1  0
 11 15  1  0
 11 16  1  0
 14 16  1  0
 14 17  1  6
 15 18  1  0
 16 19  1  6
 18 20  1  0
 19 20  1  0
 21 18  1  6
 21 22  1  0
 21 23  1  0
 23 24  1  0
 22 25  1  0
 22 26  1  0
 24 26  1  0
M  END
$$$$
12
     RDKit          3D

 18 20  0  0  0  0  0  0  0  0999 V2000
   29.2592   12.1480   22.0997 C   0  0  0  0  0  0  0  0  0  0  0  0
   29.6030   11.4340   23.1202 C   0  0  1  0  0  0  0  0  0  0  0  0
   30.9988   11.4509   23.4484 C   0  0  0  0  0  0  0  0  0  0  0  0
   27.8873   12.2810   21.7439 F   0  0  0  0  0  0  0  0  0  0  0  0
   28.8379   10.7066   23.9912 C   0  0  0  0  0  0  0  0  0  0  0  0
   29.4188   10.0733   25.1446 C   0  0  0  0  0  0  0  0  0  0  0  0
   30.7791   10.1382   25.3649 C   0  0  1  0  0  0  0  0  0  0  0  0
   31.6171   10.9167   24.5098 C   0  0  1  0  0  0  0  0  0  0  0  0
   33.0561   10.8624   24.7697 C   0  0  0  0  0  0  0  0  0  0  0  0
   31.2985    9.4809   26.5356 O   0  0  0  0  0  0  0  0  0  0  0  0
   30.1627   12.6822   21.4011 C   0  0  0  0  0  0  0  0  0  0  0  0
   33.7287   11.8753   24.0320 C   0  0  0  0  0  0  0  0  0  0  0  0
   31.5377   12.5916   21.7668 C   0  0  0  0  0  0  0  0  0  0  0  0
   31.9561   12.1051   22.6574 C   0  0  0  0  0  0  0  0  0  0  0  0
   33.4079   12.2089   22.8950 C   0  0  0  0  0  0  0  0  0  0  0  0
   30.7669    8.2203   27.0023 C   0  0  0  0  0  0  0  0  0  0  0  0
   30.5305    8.2299   28.3420 N   0  0  0  0  0  0  0  0  0  0  0  0
   30.6827    7.1850   26.2412 O   0  0  0  0  0  0  0  0  0  0  0  0
  1  2  1  0
  2  3  1  0
  1  4  1  0
  2  5  1  1
  5  6  1  0
  6  7  1  0
  3  8  1  0
  7  8  1  0
  8  9  1  6
  7 10  1  1
  1 11  1  0
  9 12  1  0
 11 13  1  0
  3 14  1  0
 13 14  1  0
 12 15  1  0
 14 15  1  0
 10 16  1  0
 16 17  1  0
 16 18  2  0
M  END
$$$$
13
     RDKit          3D

 18 20  0  0  0  0  0  0  0  0999 V2000
   29.2592   12.1480   22.0997 C   0  0  0  0  0  0  0  0  0  0  0  0
   29.6030   11.4340   23.1202 C   0  0  1  0  0  0  0  0  0  0  0  0
   30.9988   11.4509   23.4484 C   0  0  0  0  0  0  0  0  0  0  0  0
   27.8873   12.2810   21.7439 F   0  0  0  0  0  0  0  0  0  0  0  0
   28.8379   10.7066   23.9912 C   0  0  0  0  0  0  0  0  0  0  0  0
   29.4188   10.0733   25.1446 C   0  0  0  0  0  0  0  0  0  0  0  0
   30.7791   10.1382   25.3649 C   0  0  1  0  0  0  0  0  0  0  0  0
   31.6171   10.9167   24.5098 C   0  0  1  0  0  0  0  0  0  0  0  0
   33.0561   10.8624   24.7697 C   0  0  0  0  0  0  0  0  0  0  0  0
   31.2985    9.4809   26.5356 O   0  0  0  0  0  0  0  0  0  0  0  0
   30.1627   12.6822   21.4011 C   0  0  0  0  0  0  0  0  0  0  0  0
   33.7287   11.8753   24.0320 C   0  0  0  0  0  0  0  0  0  0  0  0
   31.5377   12.5916   21.7668 C   0  0  0  0  0  0  0  0  0  0  0  0
   31.9561   12.1051   22.6574 C   0  0  0  0  0  0  0  0  0  0  0  0
   33.4079   12.2089   22.8950 C   0  0  0  0  0  0  0  0  0  0  0  0
   30.7669    8.2203   27.0023 C   0  0  0  0  0  0  0  0  0  0  0  0
   31.4045    7.2344   26.7331 O   0  0  0  0  0  0  0  0  0  0  0  0
   29.9106    8.2280   28.0354 O   0  0  0  0  0  0  0  0  0  0  0  0
  1  2  1  0
  2  3  1  0
  1  4  1  0
  2  5  1  1
  5  6  1  0
  6  7  1  0
  3  8  1  0
  7  8  1  0
  8  9  1  6
  7 10  1  1
  1 11  1  0
  9 12  1  0
 11 13  1  0
  3 14  1  0
 13 14  1  0
 12 15  1  0
 14 15  1  0
 10 16  1  0
 16 17  2  0
 16 18  1  0
M  END
$$$$
14
     RDKit          3D

 18 20  0  0  0  0  0  0  0  0999 V2000
   29.9151   10.0915   27.5135 O   0  0  0  0  0  0  0  0  0  0  0  0
   30.5246    9.7206   26.5082 C   0  0  0  0  0  0  0  0  0  0  0  0
   30.3137   10.2355   25.2595 N   0  0  0  0  0  0  0  0  0  0  0  0
   30.9813    9.9194   24.1489 C   0  0  1  0  0  0  0  0  0  0  0  0
   30.8793   10.8117   23.0680 N   0  0  0  0  0  0  0  0  0  0  0  0
   31.3737    8.6061   26.6226 N   0  0  0  0  0  0  0  0  0  0  0  0
   31.6465    7.8740   27.7718 C   0  0  0  0  0  0  0  0  0  0  0  0
   32.0956    9.0899   24.3379 C   0  0  2  0  0  0  0  0  0  0  0  0
   32.9250    8.7926   23.1693 O   0  0  0  0  0  0  0  0  0  0  0  0
   32.3771    8.4357   25.5210 C   0  0  1  0  0  0  0  0  0  0  0  0
   34.3459    8.7502   23.6639 C   0  0  0  0  0  0  0  0  0  0  0  0
   29.6666   11.4073   22.8619 C   0  0  0  0  0  0  0  0  0  0  0  0
   29.6099   12.2189   21.6140 C   0  0  0  0  0  0  0  0  0  0  0  0
   34.5156    7.9721   24.8218 C   0  0  0  0  0  0  0  0  0  0  0  0
   30.6837   12.9788   21.2573 C   0  0  0  0  0  0  0  0  0  0  0  0
   33.6940    8.2310   25.8987 C   0  0  0  0  0  0  0  0  0  0  0  0
   32.0142   12.4951   21.8207 C   0  0  0  0  0  0  0  0  0  0  0  0
   32.0206   11.4477   22.5918 C   0  0  0  0  0  0  0  0  0  0  0  0
  1  2  2  0
  2  3  1  0
  3  4  1  0
  4  5  1  1
  2  6  1  0
  6  7  1  0
  4  8  1  0
  8  9  1  6
  6 10  1  0
  8 10  1  0
  9 11  1  0
  5 12  1  0
 12 13  1  0
 11 14  1  0
 13 15  1  0
 10 16  1  1
 14 16  1  0
 15 17  1  0
  5 18  1  0
 17 18  1  0
M  END
$$$$
15
     RDKit          3D

 19 20  0  0  0  0  0  0  0  0999 V2000
   28.9509   12.4482   21.7631 N   0  0  0  0  0  0  0  0  0  0  0  0
   29.7944   11.9422   22.5726 C   0  0  0  0  0  0  0  0  0  0  0  0
   29.7031   11.1401   23.5614 N   0  0  0  0  0  0  0  0  0  0  0  0
   31.2683   12.3879   22.2486 C   0  0  0  0  0  0  0  0  0  0  0  0
   30.6700   10.6324   24.3268 C   0  0  0  0  0  0  0  0  0  0  0  0
   31.9745   10.9862   24.0736 C   0  0  0  0  0  0  0  0  0  0  0  0
   30.2300    9.6625   25.5514 C   0  0  2  0  0  0  0  0  0  0  0  0
   32.2840   11.7972   23.0480 C   0  0  2  0  0  0  0  0  0  0  0  0
   33.7396   12.1316   22.7987 C   0  0  0  0  0  0  0  0  0  0  0  0
   29.3291   10.1328   26.4328 O   0  0  0  0  0  0  0  0  0  0  0  0
   29.6321   10.0186   27.8979 N   0  0  0  0  0  0  0  0  0  0  0  0
   30.9986    8.6801   25.9027 C   0  0  0  0  0  0  0  0  0  0  0  0
   30.4276    8.7736   27.8405 C   0  0  0  0  0  0  0  0  0  0  0  0
   34.3277   12.9770   23.6070 C   0  0  0  0  0  0  0  0  0  0  0  0
   31.1441    8.2721   27.0659 C   0  0  1  0  0  0  0  0  0  0  0  0
   31.9676    7.1101   27.3737 O   0  0  0  0  0  0  0  0  0  0  0  0
   33.3223    7.3867   27.5041 C   0  0  0  0  0  0  0  0  0  0  0  0
   34.0090    6.5063   28.2849 C   0  0  0  0  0  0  0  0  0  0  0  0
   34.2914    6.8761   29.5490 O   0  0  0  0  0  0  0  0  0  0  0  0
  1  2  1  0
  2  3  1  0
  2  4  1  0
  3  5  1  0
  5  6  1  0
  7  5  1  1
  4  8  1  0
  6  8  1  0
  8  9  1  1
  7 10  1  0
 10 11  1  0
  7 12  1  0
 11 13  1  0
  9 14  1  0
 12 15  1  0
 13 15  1  0
 15 16  1  6
 16 17  1  0
 17 18  1  0
 18 19  1  0
M  END
$$$$
16
     RDKit          3D

 19 20  0  0  0  0  0  0  0  0999 V2000
   28.7206   10.5582   23.9916 N   0  0  0  0  0  0  0  0  0  0  0  0
   29.7889   10.7914   24.1286 C   0  0  0  0  0  0  0  0  0  0  0  0
   31.2099   10.7790   24.1403 C   0  0  1  0  0  0  0  0  0  0  0  0
   31.7586   11.8380   23.3111 C   0  0  1  0  0  0  0  0  0  0  0  0
   31.9340   10.1579   25.0881 C   0  0  1  0  0  0  0  0  0  0  0  0
   31.4217    9.1886   25.9180 C   0  0  2  0  0  0  0  0  0  0  0  0
   30.3945    9.3108   26.8314 C   0  0  2  0  0  0  0  0  0  0  0  0
   33.2002   11.9733   23.3846 C   0  0  0  0  0  0  0  0  0  0  0  0
   30.9964   12.6329   22.3269 C   0  0  0  0  0  0  0  0  0  0  0  0
   30.1756    8.3656   27.8072 N   0  0  0  0  0  0  0  0  0  0  0  0
   33.2182   10.5220   25.1098 C   0  0  0  0  0  0  0  0  0  0  0  0
   33.8057   11.3629   24.1716 C   0  0  0  0  0  0  0  0  0  0  0  0
   31.0173    7.3895   27.7611 C   0  0  1  0  0  0  0  0  0  0  0  0
   32.1166    7.5727   26.8424 N   0  0  0  0  0  0  0  0  0  0  0  0
   32.3067    8.2954   26.0352 C   0  0  0  0  0  0  0  0  0  0  0  0
   31.0175    6.4442   28.7691 N   0  0  0  0  0  0  0  0  0  0  0  0
   29.7501   12.9560   22.5069 O   0  0  0  0  0  0  0  0  0  0  0  0
   29.3508   10.4544   26.8133 O   0  0  0  0  0  0  0  0  0  0  0  0
   31.5756   12.9433   21.2321 O   0  0  0  0  0  0  0  0  0  0  0  0
  1  2  3  0
  3  2  1  1
  3  4  1  0
  3  5  1  0
  5  6  1  0
  6  7  1  0
  4  8  1  0
  4  9  1  6
  7 10  1  0
  5 11  1  6
  8 12  1  0
 11 12  1  0
 10 13  1  0
 13 14  1  0
  6 15  1  1
 14 15  1  0
 13 16  1  1
  9 17  1  0
  7 18  1  6
  9 19  2  0
M  END
$$$$
17
     RDKit          3D

 19 20  0  0  0  0  0  0  0  0999 V2000
   29.2737   10.4558   23.8011 C   0  0  1  0  0  0  0  0  0  0  0  0
   30.2888   10.0258   24.5823 C   0  0  2  0  0  0  0  0  0  0  0  0
   30.1677    9.2672   25.7047 O   0  0  0  0  0  0  0  0  0  0  0  0
   31.1220    9.3000   26.8409 C   0  0  0  0  0  0  0  0  0  0  0  0
   30.5822    8.5439   27.9081 C   0  0  0  0  0  0  0  0  0  0  0  0
   30.6037    7.1804   27.6019 O   0  0  0  0  0  0  0  0  0  0  0  0
   31.5734   10.6328   24.2512 C   0  0  1  0  0  0  0  0  0  0  0  0
   27.9766    9.9894   24.2549 O   0  0  0  0  0  0  0  0  0  0  0  0
   32.8063   10.2844   24.9673 O   0  0  0  0  0  0  0  0  0  0  0  0
   31.6377   11.4567   23.1013 C   0  0  1  0  0  0  0  0  0  0  0  0
   29.3657   11.4505   22.8206 C   0  0  0  0  0  0  0  0  0  0  0  0
   30.7311   11.7947   22.5270 C   0  0  1  0  0  0  0  0  0  0  0  0
   33.0414   12.1087   22.7148 C   0  0  0  0  0  0  0  0  0  0  0  0
   31.0852   12.7934   21.3727 C   0  0  0  0  0  0  0  0  0  0  0  0
   32.5114   12.8549   21.5257 C   0  0  0  0  0  0  0  0  0  0  0  0
   33.9398    9.9679   24.2990 C   0  0  0  0  0  0  0  0  0  0  0  0
   34.1004    8.9190   23.2965 C   0  0  0  0  0  0  0  0  0  0  0  0
   33.3829    7.9174   23.5356 O   0  0  0  0  0  0  0  0  0  0  0  0
   34.7852    8.9120   22.2395 O   0  0  0  0  0  0  0  0  0  0  0  0
  1  2  1  0
  2  3  1  1
  3  4  1  0
  4  5  1  0
  5  6  1  0
  2  7  1  0
  1  8  1  1
  7  9  1  6
  7 10  1  0
  1 11  1  0
 10 12  1  0
 12 11  1  1
 10 13  1  1
 12 14  1  0
 13 15  1  0
 14 15  1  0
  9 16  1  0
 16 17  1  0
 17 18  1  0
 17 19  2  0
M  END
$$$$
18
     RDKit          3D

 19 21  0  0  0  0  0  0  0  0999 V2000
   30.8035   12.5326   21.8481 C   0  0  0  0  0  0  0  0  0  0  0  0
   29.6451   12.1577   22.2016 C   0  0  2  0  0  0  0  0  0  0  0  0
   29.5991   11.4579   23.2392 C   0  0  0  0  0  0  0  0  0  0  0  0
   28.6158   12.3659   21.2016 N   0  0  0  0  0  0  0  0  0  0  0  0
   30.6713   11.1848   24.1060 C   0  0  0  0  0  0  0  0  0  0  0  0
   31.9408   12.2957   22.6023 C   0  0  0  0  0  0  0  0  0  0  0  0
   31.9083   11.6931   23.5928 C   0  0  0  0  0  0  0  0  0  0  0  0
   33.2972   11.3990   24.5105 C   0  0  0  0  0  0  0  0  0  0  0  0
   34.2635   12.1363   23.8607 C   0  0  0  0  0  0  0  0  0  0  0  0
   33.4301   12.9164   22.1706 S   0  0  0  0  0  0  0  0  0  0  0  0
   30.5046   10.4362   25.3186 C   0  0  1  0  0  0  0  0  0  0  0  0
   29.4195   10.7236   26.0981 O   0  0  0  0  0  0  0  0  0  0  0  0
   29.4242    9.9341   27.3182 N   0  0  0  0  0  0  0  0  0  0  0  0
   34.5417   12.6597   23.0505 C   0  0  0  0  0  0  0  0  0  0  0  0
   30.3726    9.0243   27.2286 C   0  0  1  0  0  0  0  0  0  0  0  0
   31.1449    9.3493   25.9802 C   0  0  0  0  0  0  0  0  0  0  0  0
   30.8102    8.0746   28.0808 C   0  0  0  0  0  0  0  0  0  0  0  0
   30.0981    7.3271   28.7263 O   0  0  0  0  0  0  0  0  0  0  0  0
   32.0906    7.3720   27.7329 O   0  0  0  0  0  0  0  0  0  0  0  0
  1  2  1  0
  2  3  1  0
  2  4  1  6
  3  5  1  0
  1  6  1  0
  5  7  1  0
  6  7  1  0
  7  8  1  0
  8  9  2  0
  6 10  1  0
 11  5  1  6
 11 12  1  0
 12 13  1  0
  9 14  1  0
 10 14  1  0
 13 15  1  0
 11 16  1  0
 15 16  1  0
 15 17  1  1
 17 18  1  0
 17 19  2  0
M  END
$$$$
19
     RDKit          3D

 19 20  0  0  0  0  0  0  0  0999 V2000
   29.3919   11.6711   22.3202 N   0  0  0  0  0  0  0  0  0  0  0  0
   29.9093   11.2007   23.3313 C   0  0  2  0  0  0  0  0  0  0  0  0
   31.3391   11.4615   23.3786 C   0  0  1  0  0  0  0  0  0  0  0  0
   30.0006   12.5610   21.4541 C   0  0  1  0  0  0  0  0  0  0  0  0
   31.4506   12.5709   21.9042 S   0  0  0  0  0  0  0  0  0  0  0  0
   29.4335   10.3177   24.3906 C   0  0  2  0  0  0  0  0  0  0  0  0
   29.2907   12.9296   20.5092 N   0  0  0  0  0  0  0  0  0  0  0  0
   32.1581   11.0284   24.3295 C   0  0  1  0  0  0  0  0  0  0  0  0
   28.1032   10.1582   24.5117 F   0  0  0  0  0  0  0  0  0  0  0  0
   31.6797   10.2612   25.3310 C   0  0  0  0  0  0  0  0  0  0  0  0
   30.2539    9.7470   25.3069 C   0  0  1  0  0  0  0  0  0  0  0  0
   29.8414    9.1040   26.5466 C   0  0  1  0  0  0  0  0  0  0  0  0
   30.6060    8.2088   27.1683 C   0  0  0  0  0  0  0  0  0  0  0  0
   29.3145    9.9453   27.7129 O   0  0  0  0  0  0  0  0  0  0  0  0
   33.6000   11.2168   24.0987 C   0  0  0  0  0  0  0  0  0  0  0  0
   34.0695   12.5014   23.9128 O   0  0  0  0  0  0  0  0  0  0  0  0
   34.2411   10.2922   24.4172 O   0  0  0  0  0  0  0  0  0  0  0  0
   30.9920    8.2928   28.4675 O   0  0  0  0  0  0  0  0  0  0  0  0
   31.1973    7.2781   26.5583 O   0  0  0  0  0  0  0  0  0  0  0  0
  2  1  1  6
  2  3  1  0
  1  4  1  0
  3  5  1  1
  4  5  1  0
  2  6  1  0
  4  7  1  6
  3  8  1  0
  6  9  1  1
  8 10  1  0
  6 11  1  0
 11 10  1  1
 11 12  1  0
 12 13  1  0
 12 14  1  1
  8 15  1  6
 15 16  1  0
 15 17  2  0
 13 18  1  0
 13 19  2  0
M  END
$$$$
2
     RDKit          3D

 14 15  0  0  0  0  0  0  0  0999 V2000
   29.3919   11.6711   22.3202 N   0  0  0  0  0  0  0  0  0  0  0  0
   29.9093   11.2007   23.3313 C   0  0  2  0  0  0  0  0  0  0  0  0
   31.3391   11.4615   23.3786 C   0  0  1  0  0  0  0  0  0  0  0  0
   30.0006   12.5610   21.4541 C   0  0  1  0  0  0  0  0  0  0  0  0
   31.4506   12.5709   21.9042 S   0  0  0  0  0  0  0  0  0  0  0  0
   29.4335   10.3177   24.3906 C   0  0  2  0  0  0  0  0  0  0  0  0
   29.2907   12.9296   20.5092 N   0  0  0  0  0  0  0  0  0  0  0  0
   32.1581   11.0284   24.3295 C   0  0  0  0  0  0  0  0  0  0  0  0
   28.1032   10.1582   24.5117 O   0  0  0  0  0  0  0  0  0  0  0  0
   30.3446    9.9588   25.4063 C   0  0  2  0  0  0  0  0  0  0  0  0
   31.7040   10.2408   25.3355 C   0  0  0  0  0  0  0  0  0  0  0  0
   29.8384    9.1722   26.5503 O   0  0  0  0  0  0  0  0  0  0  0  0
   33.8287   11.4740   24.2448 Cl  0  0  0  0  0  0  0  0  0  0  0  0
   30.3767    9.2862   27.8084 C   0  0  0  0  0  0  0  0  0  0  0  0
  2  1  1  6
  2  3  1  0
  1  4  1  0
  3  5  1  1
  4  5  1  0
  2  6  1  0
  4  7  1  6
  3  8  1  0
  6  9  1  1
  6 10  1  0
  8 11  1  0
 10 11  1  0
 10 12  1  6
  8 13  1  0
 12 14  1  0
M  END
$$$$
20
     RDKit          3D

 19 20  0  0  0  0  0  0  0  0999 V2000
   30.6804   12.8394   21.1336 C   0  0  0  0  0  0  0  0  0  0  0  0
   31.8325   12.6790   21.7882 C   0  0  0  0  0  0  0  0  0  0  0  0
   32.0421   12.0051   22.9915 C   0  0  0  0  0  0  0  0  0  0  0  0
   29.5080   12.3058   21.7956 C   0  0  0  0  0  0  0  0  0  0  0  0
   28.3067   12.4827   21.1951 O   0  0  0  0  0  0  0  0  0  0  0  0
   29.6785   11.5728   23.0289 C   0  0  0  0  0  0  0  0  0  0  0  0
   28.5986   11.0410   23.6541 N   0  0  0  0  0  0  0  0  0  0  0  0
   30.9611   11.4497   23.5887 C   0  0  0  0  0  0  0  0  0  0  0  0
   33.6774   11.9689   23.5887 Cl  0  0  0  0  0  0  0  0  0  0  0  0
   28.7887   10.4851   24.8387 C   0  0  0  0  0  0  0  0  0  0  0  0
   30.0968   10.2841   25.3522 C   0  0  1  0  0  0  0  0  0  0  0  0
   31.0228   10.7016   24.8139 C   0  0  0  0  0  0  0  0  0  0  0  0
   30.1789    9.5121   26.7917 C   0  0  0  0  0  0  0  0  0  0  0  0
   29.5564    9.9170   27.7388 O   0  0  0  0  0  0  0  0  0  0  0  0
   31.1336    8.5601   26.9205 N   0  0  0  0  0  0  0  0  0  0  0  0
   31.3440    7.8511   28.0715 C   0  0  0  0  0  0  0  0  0  0  0  0
   32.3320    6.7394   27.9483 C   0  0  0  0  0  0  0  0  0  0  0  0
   33.3106    6.9786   27.0796 O   0  0  0  0  0  0  0  0  0  0  0  0
   34.5172    7.0740   27.4893 C   0  0  0  0  0  0  0  0  0  0  0  0
  1  2  1  0
  2  3  1  0
  1  4  1  0
  4  5  1  0
  4  6  1  0
  6  7  1  0
  3  8  1  0
  6  8  1  0
  3  9  1  0
  7 10  1  0
 10 11  1  0
  8 12  1  0
 11 12  1  0
 11 13  1  1
 13 14  2  0
 13 15  1  0
 15 16  1  0
 16 17  1  0
 17 18  1  0
 18 19  1  0
M  END
$$$$
21
     RDKit          3D

 20 22  0  0  0  0  0  0  0  0999 V2000
   29.2592   12.1480   22.0997 C   0  0  0  0  0  0  0  0  0  0  0  0
   29.6030   11.4340   23.1202 N   0  0  0  0  0  0  0  0  0  0  0  0
   28.8378   10.7477   23.9266 N   0  0  0  0  0  0  0  0  0  0  0  0
   29.3489   10.1959   25.0666 C   0  0  0  0  0  0  0  0  0  0  0  0
   29.8629   12.8817   21.3541 C   0  0  0  0  0  0  0  0  0  0  0  0
   30.7950   10.1811   25.1469 C   0  0  0  0  0  0  0  0  0  0  0  0
   31.4751    9.4461   26.1942 N   0  0  0  0  0  0  0  0  0  0  0  0
   31.2436   12.6299   21.6128 C   0  0  0  0  0  0  0  0  0  0  0  0
   32.6622    8.8704   25.8949 C   0  0  0  0  0  0  0  0  0  0  0  0
   31.4745   10.9078   24.1592 C   0  0  0  0  0  0  0  0  0  0  0  0
   32.9944   10.9409   24.2755 C   0  0  2  0  0  0  0  0  0  0  0  0
   30.9616   11.5865   23.0251 C   0  0  1  0  0  0  0  0  0  0  0  0
   30.6189    9.0011   27.2926 C   0  0  0  0  0  0  0  0  0  0  0  0
   33.8404   11.6470   23.5464 C   0  0  0  0  0  0  0  0  0  0  0  0
   34.0777   12.9213   23.6466 C   0  0  0  0  0  0  0  0  0  0  0  0
   34.5333   11.0322   22.4329 O   0  0  0  0  0  0  0  0  0  0  0  0
   33.4846    9.6786   25.0276 C   0  0  0  0  0  0  0  0  0  0  0  0
   31.1155    8.0527   28.0508 O   0  0  0  0  0  0  0  0  0  0  0  0
   30.7904    6.5388   27.8542 C   0  0  0  0  0  0  0  0  0  0  0  0
   29.5895    9.5691   27.6137 O   0  0  0  0  0  0  0  0  0  0  0  0
  1  2  1  0
  2  3  1  0
  3  4  1  0
  1  5  1  0
  4  6  1  0
  6  7  1  0
  5  8  1  0
  7  9  1  0
  6 10  1  0
 10 11  1  0
  2 12  1  0
 12  8  1  1
 10 12  1  0
  7 13  1  0
 11 14  1  6
 14 15  1  0
 14 16  2  0
  9 17  1  0
 11 17  1  0
 13 18  1  0
 18 19  1  0
 13 20  2  0
M  END
$$$$
22
     RDKit          3D

 20 22  0  0  0  0  0  0  0  0999 V2000
   30.6804   12.8394   21.1336 C   0  0  0  0  0  0  0  0  0  0  0  0
   31.8325   12.6790   21.7882 C   0  0  2  0  0  0  0  0  0  0  0  0
   33.0447   13.1452   21.2602 C   0  0  0  0  0  0  0  0  0  0  0  0
   31.8973   11.9038   23.0333 C   0  0  0  0  0  0  0  0  0  0  0  0
   29.4892   12.2818   21.9263 C   0  0  0  0  0  0  0  0  0  0  0  0
   29.5979   11.5327   22.9939 C   0  0  0  0  0  0  0  0  0  0  0  0
   30.8007   11.3796   23.6119 C   0  0  1  0  0  0  0  0  0  0  0  0
   30.7946   10.5767   24.7656 C   0  0  2  0  0  0  0  0  0  0  0  0
   31.9342    9.8381   25.2004 C   0  0  2  0  0  0  0  0  0  0  0  0
   33.2478   11.6854   23.7357 C   0  0  0  0  0  0  0  0  0  0  0  0
   32.0263    9.1243   26.3308 N   0  0  0  0  0  0  0  0  0  0  0  0
   33.2266   10.6021   24.7221 C   0  0  0  0  0  0  0  0  0  0  0  0
   29.6003   10.1190   25.4852 C   0  0  0  0  0  0  0  0  0  0  0  0
   33.2397    8.4064   26.5558 C   0  0  0  0  0  0  0  0  0  0  0  0
   30.9897    8.8914   27.0985 C   0  0  0  0  0  0  0  0  0  0  0  0
   33.0556    6.9204   26.3856 O   0  0  0  0  0  0  0  0  0  0  0  0
   29.7404    9.4483   26.7042 C   0  0  1  0  0  0  0  0  0  0  0  0
   31.0144    8.0399   28.0696 O   0  0  0  0  0  0  0  0  0  0  0  0
   29.0748   10.1630   27.7117 O   0  0  0  0  0  0  0  0  0  0  0  0
   34.2183    6.3696   26.1063 C   0  0  0  0  0  0  0  0  0  0  0  0
  1  2  1  0
  2  3  1  6
  2  4  1  0
  1  5  1  0
  5  6  1  0
  4  7  1  0
  7  6  1  6
  7  8  1  0
  8  9  1  0
  4 10  1  0
  9 11  1  0
  9 12  1  1
 10 12  1  0
  8 13  1  6
 11 14  1  0
 11 15  1  0
 14 16  1  0
 13 17  1  0
 15 17  1  0
 15 18  2  0
 17 19  1  1
 16 20  1  0
M  END
$$$$
23
     RDKit          3D

 20 23  0  0  0  0  0  0  0  0999 V2000
   30.8035   12.5326   21.8481 C   0  0  0  0  0  0  0  0  0  0  0  0
   29.6451   12.1577   22.2016 C   0  0  2  0  0  0  0  0  0  0  0  0
   29.5991   11.4579   23.2392 N   0  0  0  0  0  0  0  0  0  0  0  0
   28.5696   12.3480   21.3214 N   0  0  0  0  0  0  0  0  0  0  0  0
   31.9206   12.1496   22.7770 C   0  0  1  0  0  0  0  0  0  0  0  0
   31.5425   11.5873   23.6689 C   0  0  1  0  0  0  0  0  0  0  0  0
   33.4995   12.3959   22.4394 C   0  0  0  0  0  0  0  0  0  0  0  0
   34.2997   11.6912   23.2575 C   0  0  0  0  0  0  0  0  0  0  0  0
   33.8831   11.0388   24.4544 C   0  0  0  0  0  0  0  0  0  0  0  0
   30.4771   11.1352   24.0304 C   0  0  0  0  0  0  0  0  0  0  0  0
   32.5360   10.9283   24.6647 C   0  0  2  0  0  0  0  0  0  0  0  0
   30.1836   10.3521   25.1594 N   0  0  0  0  0  0  0  0  0  0  0  0
   29.2080    9.8803   25.8498 C   0  0  1  0  0  0  0  0  0  0  0  0
   29.4182    9.2875   27.1169 C   0  0  1  0  0  0  0  0  0  0  0  0
   31.6240    9.9979   25.5678 C   0  0  0  0  0  0  0  0  0  0  0  0
   27.9573   10.5934   25.9328 O   0  0  0  0  0  0  0  0  0  0  0  0
   28.5935    8.4893   27.5856 O   0  0  0  0  0  0  0  0  0  0  0  0
   30.9289    8.6399   26.9674 C   0  0  2  0  0  0  0  0  0  0  0  0
   31.1321    7.7457   28.1135 O   0  0  0  0  0  0  0  0  0  0  0  0
   31.9512    9.4226   26.6742 C   0  0  0  0  0  0  0  0  0  0  0  0
  1  2  1  0
  2  3  1  0
  2  4  1  6
  5  1  1  6
  5  6  1  0
  5  7  1  0
  7  8  1  0
  8  9  1  0
  3 10  1  0
  6 10  1  6
  6 11  1  0
 11  9  1  6
 10 12  1  0
 12 13  1  0
 13 14  1  0
 11 15  1  0
 12 15  1  0
 13 16  1  1
 14 17  1  6
 14 18  1  0
 18 19  1  1
 15 20  2  0
 18 20  1  0
M  END
$$$$
24
     RDKit          3D

 20 22  0  0  0  0  0  0  0  0999 V2000
   29.2737   10.4558   23.8011 C   0  0  2  0  0  0  0  0  0  0  0  0
   30.2888   10.0258   24.5823 C   0  0  2  0  0  0  0  0  0  0  0  0
   30.1677    9.2672   25.7047 O   0  0  0  0  0  0  0  0  0  0  0  0
   31.1220    9.3000   26.8409 C   0  0  1  0  0  0  0  0  0  0  0  0
   30.5822    8.5439   27.9081 C   0  0  0  0  0  0  0  0  0  0  0  0
   30.6037    7.1804   27.6019 O   0  0  0  0  0  0  0  0  0  0  0  0
   29.3936   11.3233   22.7650 N   0  0  0  0  0  0  0  0  0  0  0  0
   31.6280   10.5275   24.1399 C   0  0  0  0  0  0  0  0  0  0  0  0
   27.9372   10.1025   24.1850 O   0  0  0  0  0  0  0  0  0  0  0  0
   30.6112   11.7274   22.3139 C   0  0  2  0  0  0  0  0  0  0  0  0
   32.8215   10.0849   24.8417 C   0  0  0  0  0  0  0  0  0  0  0  0
   32.3833    8.9036   26.0311 C   0  0  1  0  0  0  0  0  0  0  0  0
   31.7794   11.4485   23.0707 C   0  0  2  0  0  0  0  0  0  0  0  0
   33.0974   11.9034   22.6149 C   0  0  0  0  0  0  0  0  0  0  0  0
   33.0676   12.9049   21.5750 C   0  0  0  0  0  0  0  0  0  0  0  0
   30.8689   12.6695   21.2298 C   0  0  2  0  0  0  0  0  0  0  0  0
   29.6583   12.9644   20.4689 O   0  0  0  0  0  0  0  0  0  0  0  0
   31.9645   13.1350   20.9275 C   0  0  0  0  0  0  0  0  0  0  0  0
   33.5590    8.7425   26.8182 O   0  0  0  0  0  0  0  0  0  0  0  0
   34.0662    7.3420   26.8388 C   0  0  0  0  0  0  0  0  0  0  0  0
  1  2  1  0
  2  3  1  1
  3  4  1  0
  4  5  1  1
  5  6  1  0
  1  7  1  0
  2  8  1  0
  1  9  1  1
 10  7  1  1
  8 11  1  0
  4 12  1  0
 11 12  1  0
  8 13  1  0
 10 13  1  0
 13 14  1  6
 14 15  1  0
 10 16  1  0
 16 17  1  6
 15 18  1  0
 16 18  1  0
 12 19  1  1
 19 20  1  0
M  END
$$$$
25
     RDKit          3D

 20 21  0  0  0  0  0  0  0  0999 V2000
   28.9509   12.4482   21.7631 N   0  0  0  0  0  0  0  0  0  0  0  0
   29.7944   11.9422   22.5726 C   0  0  0  0  0  0  0  0  0  0  0  0
   29.7031   11.1401   23.5614 N   0  0  0  0  0  0  0  0  0  0  0  0
   31.2683   12.3879   22.2486 C   0  0  0  0  0  0  0  0  0  0  0  0
   30.6700   10.6324   24.3268 C   0  0  0  0  0  0  0  0  0  0  0  0
   31.9745   10.9862   24.0736 C   0  0  0  0  0  0  0  0  0  0  0  0
   30.2300    9.6625   25.5514 C   0  0  2  0  0  0  0  0  0  0  0  0
   32.2840   11.7972   23.0480 C   0  0  2  0  0  0  0  0  0  0  0  0
   33.7396   12.1316   22.7987 C   0  0  0  0  0  0  0  0  0  0  0  0
   29.3291   10.1328   26.4328 O   0  0  0  0  0  0  0  0  0  0  0  0
   29.6321   10.0186   27.8979 N   0  0  0  0  0  0  0  0  0  0  0  0
   30.9986    8.6801   25.9027 C   0  0  0  0  0  0  0  0  0  0  0  0
   30.7327    8.4279   27.3453 C   0  0  2  0  0  0  0  0  0  0  0  0
   30.1288    8.9824   28.2023 C   0  0  0  0  0  0  0  0  0  0  0  0
   34.5268   11.2255   22.7324 O   0  0  0  0  0  0  0  0  0  0  0  0
   31.6714    7.0901   27.7112 O   0  0  0  0  0  0  0  0  0  0  0  0
   33.9486   13.4175   22.6066 O   0  0  0  0  0  0  0  0  0  0  0  0
   33.0705    7.2246   27.9177 C   0  0  0  0  0  0  0  0  0  0  0  0
   33.7653    6.9160   26.7262 C   0  0  0  0  0  0  0  0  0  0  0  0
   34.5666    5.8492   26.8024 O   0  0  0  0  0  0  0  0  0  0  0  0
  1  2  1  0
  2  3  1  0
  2  4  1  0
  3  5  1  0
  5  6  1  0
  7  5  1  1
  4  8  1  0
  6  8  1  0
  8  9  1  1
  7 10  1  0
 10 11  1  0
  7 12  1  0
 12 13  1  0
 11 14  1  0
 13 14  1  0
  9 15  1  0
 13 16  1  1
  9 17  2  0
 16 18  1  0
 18 19  1  0
 19 20  1  0
M  END
$$$$
26
     RDKit          3D

 20 21  0  0  0  0  0  0  0  0999 V2000
   28.9509   12.4482   21.7631 N   0  0  0  0  0  0  0  0  0  0  0  0
   29.7944   11.9422   22.5726 C   0  0  0  0  0  0  0  0  0  0  0  0
   29.7031   11.1401   23.5614 N   0  0  0  0  0  0  0  0  0  0  0  0
   31.2683   12.3879   22.2486 C   0  0  0  0  0  0  0  0  0  0  0  0
   30.6700   10.6324   24.3268 C   0  0  0  0  0  0  0  0  0  0  0  0
   31.9745   10.9862   24.0736 C   0  0  0  0  0  0  0  0  0  0  0  0
   30.2300    9.6625   25.5514 C   0  0  2  0  0  0  0  0  0  0  0  0
   32.2840   11.7972   23.0480 C   0  0  2  0  0  0  0  0  0  0  0  0
   33.7396   12.1316   22.7987 C   0  0  0  0  0  0  0  0  0  0  0  0
   29.3291   10.1328   26.4328 O   0  0  0  0  0  0  0  0  0  0  0  0
   29.6321   10.0186   27.8979 N   0  0  0  0  0  0  0  0  0  0  0  0
   30.9986    8.6801   25.9027 C   0  0  0  0  0  0  0  0  0  0  0  0
   30.4276    8.7736   27.8405 C   0  0  0  0  0  0  0  0  0  0  0  0
   34.3277   12.9770   23.6070 C   0  0  0  0  0  0  0  0  0  0  0  0
   31.1441    8.2721   27.0659 C   0  0  1  0  0  0  0  0  0  0  0  0
   31.9676    7.1101   27.3737 O   0  0  0  0  0  0  0  0  0  0  0  0
   33.3223    7.3867   27.5041 C   0  0  0  0  0  0  0  0  0  0  0  0
   34.0090    6.5063   28.2849 C   0  0  0  0  0  0  0  0  0  0  0  0
   33.4787    5.2830   28.6642 O   0  0  0  0  0  0  0  0  0  0  0  0
   34.0231    4.3175   29.3945 C   0  0  0  0  0  0  0  0  0  0  0  0
  1  2  1  0
  2  3  1  0
  2  4  1  0
  3  5  1  0
  5  6  1  0
  7  5  1  1
  4  8  1  0
  6  8  1  0
  8  9  1  1
  7 10  1  0
 10 11  1  0
  7 12  1  0
 11 13  1  0
  9 14  1  0
 12 15  1  0
 13 15  1  0
 15 16  1  6
 16 17  1  0
 17 18  1  0
 18 19  1  0
 19 20  1  0
M  END
$$$$
27
     RDKit          3D

 20 21  0  0  0  0  0  0  0  0999 V2000
   28.9509   12.4482   21.7631 N   0  0  0  0  0  0  0  0  0  0  0  0
   29.7944   11.9422   22.5726 C   0  0  0  0  0  0  0  0  0  0  0  0
   29.7031   11.1401   23.5614 N   0  0  0  0  0  0  0  0  0  0  0  0
   31.2683   12.3879   22.2486 C   0  0  0  0  0  0  0  0  0  0  0  0
   30.6700   10.6324   24.3268 C   0  0  0  0  0  0  0  0  0  0  0  0
   31.9745   10.9862   24.0736 C   0  0  0  0  0  0  0  0  0  0  0  0
   30.2300    9.6625   25.5514 C   0  0  2  0  0  0  0  0  0  0  0  0
   32.2840   11.7972   23.0480 C   0  0  2  0  0  0  0  0  0  0  0  0
   33.7396   12.1316   22.7987 C   0  0  2  0  0  0  0  0  0  0  0  0
   29.3291   10.1328   26.4328 O   0  0  0  0  0  0  0  0  0  0  0  0
   29.6321   10.0186   27.8979 N   0  0  0  0  0  0  0  0  0  0  0  0
   30.9986    8.6801   25.9027 C   0  0  0  0  0  0  0  0  0  0  0  0
   30.7327    8.4279   27.3453 C   0  0  2  0  0  0  0  0  0  0  0  0
   30.1288    8.9824   28.2023 C   0  0  0  0  0  0  0  0  0  0  0  0
   34.5268   11.2255   22.7324 O   0  0  0  0  0  0  0  0  0  0  0  0
   31.8270    7.2061   27.6222 O   0  0  0  0  0  0  0  0  0  0  0  0
   34.0485   13.4122   23.4621 C   0  0  0  0  0  0  0  0  0  0  0  0
   32.9773    7.5625   28.2784 C   0  0  0  0  0  0  0  0  0  0  0  0
   33.9308    6.5462   27.9423 C   0  0  0  0  0  0  0  0  0  0  0  0
   34.1945    6.1900   26.7117 O   0  0  0  0  0  0  0  0  0  0  0  0
  1  2  1  0
  2  3  1  0
  2  4  1  0
  3  5  1  0
  5  6  1  0
  7  5  1  1
  8  4  1  1
  6  8  1  0
  8  9  1  0
  7 10  1  0
 10 11  1  0
  7 12  1  0
 12 13  1  0
 11 14  1  0
 13 14  1  0
  9 15  1  0
 13 16  1  1
  9 17  1  1
 16 18  1  0
 18 19  1  0
 19 20  1  0
M  END
$$$$
28
     RDKit          3D

 20 22  0  0  0  0  0  0  0  0999 V2000
   30.6804   12.8394   21.1336 C   0  0  0  0  0  0  0  0  0  0  0  0
   31.8325   12.6790   21.7882 C   0  0  2  0  0  0  0  0  0  0  0  0
   33.0447   13.1452   21.2602 C   0  0  0  0  0  0  0  0  0  0  0  0
   31.8973   11.9038   23.0333 C   0  0  0  0  0  0  0  0  0  0  0  0
   29.4892   12.2818   21.9263 C   0  0  0  0  0  0  0  0  0  0  0  0
   29.5979   11.5327   22.9939 C   0  0  0  0  0  0  0  0  0  0  0  0
   30.8007   11.3796   23.6119 C   0  0  1  0  0  0  0  0  0  0  0  0
   30.7946   10.5767   24.7656 C   0  0  2  0  0  0  0  0  0  0  0  0
   31.9342    9.8381   25.2004 C   0  0  2  0  0  0  0  0  0  0  0  0
   33.2478   11.6854   23.7357 C   0  0  0  0  0  0  0  0  0  0  0  0
   32.0263    9.1243   26.3308 N   0  0  0  0  0  0  0  0  0  0  0  0
   33.2266   10.6021   24.7221 C   0  0  0  0  0  0  0  0  0  0  0  0
   29.6003   10.1190   25.4852 C   0  0  1  0  0  0  0  0  0  0  0  0
   33.2397    8.4064   26.5558 C   0  0  0  0  0  0  0  0  0  0  0  0
   30.9897    8.8914   27.0985 C   0  0  0  0  0  0  0  0  0  0  0  0
   33.0556    6.9204   26.3856 O   0  0  0  0  0  0  0  0  0  0  0  0
   29.7404    9.4483   26.7042 C   0  0  0  0  0  0  0  0  0  0  0  0
   31.0144    8.0399   28.0696 O   0  0  0  0  0  0  0  0  0  0  0  0
   28.4117   10.5900   25.1171 O   0  0  0  0  0  0  0  0  0  0  0  0
   34.1783    6.3654   26.0747 C   0  0  0  0  0  0  0  0  0  0  0  0
  1  2  1  0
  2  3  1  6
  2  4  1  0
  1  5  1  0
  5  6  1  0
  4  7  1  0
  7  6  1  6
  7  8  1  0
  8  9  1  0
  4 10  1  0
  9 11  1  0
  9 12  1  1
 10 12  1  0
  8 13  1  6
 11 14  1  0
 11 15  1  0
 14 16  1  0
 13 17  1  0
 15 17  1  0
 15 18  2  0
 13 19  1  1
 16 20  1  0
M  END
$$$$
29
     RDKit          3D

 20 22  0  0  0  0  0  0  0  0999 V2000
   30.8035   12.5326   21.8481 C   0  0  0  0  0  0  0  0  0  0  0  0
   29.6451   12.1577   22.2016 C   0  0  2  0  0  0  0  0  0  0  0  0
   29.5991   11.4579   23.2392 C   0  0  0  0  0  0  0  0  0  0  0  0
   28.6158   12.3659   21.2016 N   0  0  0  0  0  0  0  0  0  0  0  0
   30.6713   11.1848   24.1060 C   0  0  2  0  0  0  0  0  0  0  0  0
   31.9408   12.2957   22.6023 C   0  0  0  0  0  0  0  0  0  0  0  0
   31.9083   11.6931   23.5928 C   0  0  0  0  0  0  0  0  0  0  0  0
   33.2972   11.3990   24.5105 C   0  0  0  0  0  0  0  0  0  0  0  0
   30.5866   10.4388   25.2906 C   0  0  0  0  0  0  0  0  0  0  0  0
   34.3694   10.7657   23.5670 C   0  0  0  0  0  0  0  0  0  0  0  0
   29.5006   10.7032   26.0802 N   0  0  0  0  0  0  0  0  0  0  0  0
   31.5769    9.5814   25.8303 C   0  0  2  0  0  0  0  0  0  0  0  0
   29.5695    9.8836   27.2113 N   0  0  0  0  0  0  0  0  0  0  0  0
   34.4435    9.4303   23.5722 C   0  0  0  0  0  0  0  0  0  0  0  0
   32.6684    8.9765   25.3555 C   0  0  0  0  0  0  0  0  0  0  0  0
   33.5715    8.6403   24.3166 C   0  0  0  0  0  0  0  0  0  0  0  0
   30.7811    9.1213   27.0761 N   0  0  0  0  0  0  0  0  0  0  0  0
   33.2888    7.0478   23.8022 C   0  0  0  0  0  0  0  0  0  0  0  0
   33.2209    6.7888   22.7391 O   0  0  0  0  0  0  0  0  0  0  0  0
   33.8232    6.1896   24.6054 O   0  0  0  0  0  0  0  0  0  0  0  0
  1  2  1  0
  2  3  1  0
  2  4  1  6
  5  3  1  6
  1  6  1  0
  5  7  1  0
  6  7  1  0
  7  8  1  0
  5  9  1  0
  8 10  1  0
  9 11  2  0
  9 12  1  0
 11 13  1  0
 10 14  1  0
 12 15  1  6
 14 16  2  3
 15 16  1  0
 12 17  1  0
 13 17  2  0
 16 18  1  0
 18 19  2  0
 18 20  1  0
M  END
$$$$
3
     RDKit          3D

 16 18  0  0  0  0  0  0  0  0999 V2000
   29.9891    9.4644   27.4542 C   0  0  0  0  0  0  0  0  0  0  0  0
   29.8380   10.2733   26.4975 N   0  0  0  0  0  0  0  0  0  0  0  0
   31.0100    8.4801   27.3383 N   0  0  0  0  0  0  0  0  0  0  0  0
   30.4902   10.1864   25.3273 C   0  0  2  0  0  0  0  0  0  0  0  0
   31.2492    7.4459   28.3261 C   0  0  0  0  0  0  0  0  0  0  0  0
   31.4687    9.2530   25.1951 C   0  0  2  0  0  0  0  0  0  0  0  0
   31.7576    8.3939   26.2173 C   0  0  0  0  0  0  0  0  0  0  0  0
   32.1918    9.4596   23.9688 C   0  0  0  0  0  0  0  0  0  0  0  0
   29.3979    9.4573   28.5676 O   0  0  0  0  0  0  0  0  0  0  0  0
   30.3990   11.0005   24.2277 N   0  0  0  0  0  0  0  0  0  0  0  0
   29.4079   11.9871   24.0145 C   0  0  0  0  0  0  0  0  0  0  0  0
   31.4341   10.6157   23.4114 C   0  0  1  0  0  0  0  0  0  0  0  0
   32.7893    7.3959   25.9840 O   0  0  0  0  0  0  0  0  0  0  0  0
   29.2657   12.1410   22.6406 C   0  0  0  0  0  0  0  0  0  0  0  0
   31.4381   11.5564   22.4661 C   0  0  0  0  0  0  0  0  0  0  0  0
   30.5388   12.3597   21.9274 C   0  0  0  0  0  0  0  0  0  0  0  0
  1  2  1  0
  1  3  1  0
  4  2  1  1
  3  5  1  0
  4  6  1  0
  3  7  1  0
  6  7  1  0
  6  8  1  1
  1  9  2  0
  4 10  1  0
 10 11  1  0
 12  8  1  1
 10 12  1  0
  7 13  2  0
 11 14  1  0
 12 15  1  0
 14 16  1  0
 15 16  1  0
M  END
$$$$
30
     RDKit          3D

 20 22  0  0  0  0  0  0  0  0999 V2000
   30.0228   12.5864   21.7485 C   0  0  1  0  0  0  0  0  0  0  0  0
   31.3032   12.6102   21.9838 C   0  0  0  0  0  0  0  0  0  0  0  0
   29.1866   11.8122   22.6172 N   0  0  0  0  0  0  0  0  0  0  0  0
   29.3055   13.2587   20.8077 N   0  0  0  0  0  0  0  0  0  0  0  0
   31.7920   11.9050   22.9669 C   0  0  1  0  0  0  0  0  0  0  0  0
   29.7558   11.1147   23.6163 C   0  0  1  0  0  0  0  0  0  0  0  0
   31.1122   11.1273   23.8105 C   0  0  0  0  0  0  0  0  0  0  0  0
   28.9019   10.3721   24.5736 N   0  0  0  0  0  0  0  0  0  0  0  0
   31.6805   10.3169   24.9258 C   0  0  0  0  0  0  0  0  0  0  0  0
   33.3754   11.7966   22.9419 C   0  0  0  0  0  0  0  0  0  0  0  0
   30.8323    9.7485   25.8551 C   0  0  0  0  0  0  0  0  0  0  0  0
   31.3125    8.9597   26.9547 C   0  0  0  0  0  0  0  0  0  0  0  0
   29.3202    9.9697   25.7181 C   0  0  2  0  0  0  0  0  0  0  0  0
   28.6667    9.3368   26.7288 C   0  0  0  0  0  0  0  0  0  0  0  0
   27.3260    9.6348   26.7870 O   0  0  0  0  0  0  0  0  0  0  0  0
   30.4718    8.4615   27.8581 C   0  0  0  0  0  0  0  0  0  0  0  0
   34.0513   12.8262   22.9688 O   0  0  0  0  0  0  0  0  0  0  0  0
   29.1056    8.6506   27.7422 N   0  0  0  0  0  0  0  0  0  0  0  0
   34.0417   10.5872   22.9008 O   0  0  0  0  0  0  0  0  0  0  0  0
   35.4298   10.4700   23.3096 C   0  0  0  0  0  0  0  0  0  0  0  0
  1  2  1  0
  1  3  1  0
  1  4  1  1
  2  5  1  0
  6  3  1  1
  5  7  1  0
  6  7  1  0
  6  8  1  0
  7  9  1  0
  5 10  1  6
  9 11  1  0
 11 12  1  0
 13  8  1  6
 11 13  1  0
 13 14  1  0
 14 15  2  0
 12 16  1  0
 10 17  2  0
 14 18  1  0
 16 18  1  0
 10 19  1  0
 19 20  1  0
M  END
$$$$
31
     RDKit          3D

 21 23  0  0  0  0  0  0  0  0999 V2000
   34.2800   12.5589   23.2846 C   0  0  0  0  0  0  0  0  0  0  0  0
   34.4152   11.3380   23.7858 C   0  0  0  0  0  0  0  0  0  0  0  0
   33.4984   10.4098   23.7437 C   0  0  1  0  0  0  0  0  0  0  0  0
   33.6876    9.0287   24.3144 C   0  0  2  0  0  0  0  0  0  0  0  0
   32.7339    8.2887   24.8895 N   0  0  0  0  0  0  0  0  0  0  0  0
   32.0946   10.6836   23.4931 C   0  0  1  0  0  0  0  0  0  0  0  0
   34.9322    8.3759   24.3812 N   0  0  0  0  0  0  0  0  0  0  0  0
   31.3086    8.6655   24.7277 C   0  0  0  0  0  0  0  0  0  0  0  0
   32.7743    6.9931   25.6519 C   0  0  0  0  0  0  0  0  0  0  0  0
   30.3477    7.9431   25.3038 O   0  0  0  0  0  0  0  0  0  0  0  0
   31.0086    9.7818   23.8947 C   0  0  1  0  0  0  0  0  0  0  0  0
   32.9089   12.8907   22.8499 C   0  0  0  0  0  0  0  0  0  0  0  0
   33.9119    7.2705   26.6830 C   0  0  0  0  0  0  0  0  0  0  0  0
   29.6207   10.1712   23.6067 C   0  0  0  0  0  0  0  0  0  0  0  0
   29.4960   11.3565   22.8976 C   0  0  0  0  0  0  0  0  0  0  0  0
   31.8893   11.9542   22.8933 C   0  0  2  0  0  0  0  0  0  0  0  0
   30.5607   12.2755   22.4645 C   0  0  0  0  0  0  0  0  0  0  0  0
   33.8370    6.2778   27.6512 O   0  0  0  0  0  0  0  0  0  0  0  0
   33.3677    6.5946   29.0108 C   0  0  0  0  0  0  0  0  0  0  0  0
   31.8666    6.6810   28.8820 C   0  0  0  0  0  0  0  0  0  0  0  0
   31.4431    7.9533   28.7822 O   0  0  0  0  0  0  0  0  0  0  0  0
  1  2  1  0
  3  2  1  1
  3  4  1  0
  4  5  1  0
  3  6  1  0
  4  7  1  1
  5  8  1  0
  5  9  1  0
  8 10  2  0
  6 11  1  1
  8 11  1  0
  1 12  1  0
  9 13  1  0
 11 14  1  1
 14 15  1  0
  6 16  1  0
 16 12  1  1
 15 17  1  0
 16 17  1  0
 13 18  1  0
 18 19  1  0
 19 20  1  0
 20 21  1  0
M  END
$$$$
32
     RDKit          3D

 21 23  0  0  0  0  0  0  0  0999 V2000
   30.6804   12.8394   21.1336 C   0  0  0  0  0  0  0  0  0  0  0  0
   31.8325   12.6790   21.7882 C   0  0  0  0  0  0  0  0  0  0  0  0
   29.6845   12.2953   22.0884 C   0  0  0  0  0  0  0  0  0  0  0  0
   29.9509   11.6013   23.2327 C   0  0  2  0  0  0  0  0  0  0  0  0
   31.1187   11.4414   23.4818 C   0  0  1  0  0  0  0  0  0  0  0  0
   32.2019   11.9961   22.8270 C   0  0  0  0  0  0  0  0  0  0  0  0
   31.5811   10.7280   24.8769 C   0  0  0  0  0  0  0  0  0  0  0  0
   28.8541   11.0100   24.0295 N   0  0  0  0  0  0  0  0  0  0  0  0
   29.1688   10.3457   25.0215 C   0  0  2  0  0  0  0  0  0  0  0  0
   33.8691   11.9578   23.1834 Cl  0  0  0  0  0  0  0  0  0  0  0  0
   28.1700    9.8667   25.8556 N   0  0  0  0  0  0  0  0  0  0  0  0
   30.4942   10.1358   25.5070 C   0  0  2  0  0  0  0  0  0  0  0  0
   30.7192    9.3853   26.7824 C   0  0  2  0  0  0  0  0  0  0  0  0
   31.9189    8.7904   27.1045 O   0  0  0  0  0  0  0  0  0  0  0  0
   29.6427    8.4120   27.1503 C   0  0  0  0  0  0  0  0  0  0  0  0
   32.7137    8.1803   26.0451 C   0  0  0  0  0  0  0  0  0  0  0  0
   28.3297    9.0132   26.9441 C   0  0  0  0  0  0  0  0  0  0  0  0
   29.8838    7.3412   27.6210 O   0  0  0  0  0  0  0  0  0  0  0  0
   33.9294    7.5968   26.4621 C   0  0  0  0  0  0  0  0  0  0  0  0
   33.9139    7.3389   27.8027 O   0  0  0  0  0  0  0  0  0  0  0  0
   34.4974    6.0523   28.2306 C   0  0  0  0  0  0  0  0  0  0  0  0
  1  2  1  0
  1  3  1  0
  4  3  1  6
  4  5  1  0
  2  6  1  0
  5  6  1  0
  5  7  1  1
  4  8  1  0
  9  8  1  1
  6 10  1  0
  9 11  1  0
 12  7  1  1
  9 12  1  0
 12 13  1  0
 13 14  1  6
 13 15  1  0
 14 16  1  0
 11 17  1  0
 15 17  1  0
 15 18  2  0
 16 19  1  0
 19 20  1  0
 20 21  1  0
M  END
$$$$
33
     RDKit          3D

 21 23  0  0  0  0  0  0  0  0999 V2000
   28.6081   10.4635   23.7013 O   0  0  0  0  0  0  0  0  0  0  0  0
   29.8620   10.7534   23.9510 C   0  0  2  0  0  0  0  0  0  0  0  0
   30.6988   11.2779   23.0864 C   0  0  1  0  0  0  0  0  0  0  0  0
   30.4834   10.1014   25.1678 C   0  0  1  0  0  0  0  0  0  0  0  0
   29.6263    9.5182   26.1453 O   0  0  0  0  0  0  0  0  0  0  0  0
   30.1155   11.8787   21.9119 C   0  0  0  0  0  0  0  0  0  0  0  0
   31.7430    9.7916   25.1827 C   0  0  2  0  0  0  0  0  0  0  0  0
   32.2223    9.0961   26.3548 O   0  0  0  0  0  0  0  0  0  0  0  0
   30.8577   12.7429   21.1209 C   0  0  0  0  0  0  0  0  0  0  0  0
   32.0965   11.2585   23.4139 C   0  0  0  0  0  0  0  0  0  0  0  0
   32.9895   12.0955   22.5250 C   0  0  0  0  0  0  0  0  0  0  0  0
   29.1260   10.3609   27.1966 C   0  0  0  0  0  0  0  0  0  0  0  0
   32.3253   12.7853   21.3682 C   0  0  0  0  0  0  0  0  0  0  0  0
   32.6256   10.5133   24.4172 C   0  0  0  0  0  0  0  0  0  0  0  0
   31.6790    7.8103   26.7000 C   0  0  0  0  0  0  0  0  0  0  0  0
   32.2899    7.3530   27.8940 C   0  0  0  0  0  0  0  0  0  0  0  0
   31.3576    6.8504   28.8356 C   0  0  0  0  0  0  0  0  0  0  0  0
   33.5743    7.2490   28.1348 C   0  0  0  0  0  0  0  0  0  0  0  0
   34.1039    6.7344   29.3261 C   0  0  0  0  0  0  0  0  0  0  0  0
   33.2245    6.2865   30.3273 C   0  0  0  0  0  0  0  0  0  0  0  0
   31.8506    6.3167   30.0429 C   0  0  0  0  0  0  0  0  0  0  0  0
  2  1  1  6
  2  3  1  0
  2  4  1  0
  4  5  1  6
  3  6  1  1
  4  7  1  0
  7  8  1  1
  6  9  1  0
  3 10  1  0
 10 11  1  0
  5 12  1  0
  9 13  1  0
 11 13  1  0
  7 14  1  0
 10 14  1  0
  8 15  1  0
 15 16  1  0
 16 17  1  0
 16 18  1  0
 18 19  1  0
 19 20  1  0
 17 21  1  0
 20 21  1  0
M  END
$$$$
34
     RDKit          3D

 21 22  0  0  0  0  0  0  0  0999 V2000
   29.0266   10.0667   27.2111 O   0  0  0  0  0  0  0  0  0  0  0  0
   29.7639   10.1204   26.1590 C   0  0  0  0  0  0  0  0  0  0  0  0
   31.0705    9.7100   26.2220 N   0  0  0  0  0  0  0  0  0  0  0  0
   29.3358   10.6772   24.9497 N   0  0  0  0  0  0  0  0  0  0  0  0
   31.5445    8.9068   27.2992 C   0  0  0  0  0  0  0  0  0  0  0  0
   30.8270    8.2918   28.2023 O   0  0  0  0  0  0  0  0  0  0  0  0
   32.9860    8.5051   27.3779 C   0  0  0  0  0  0  0  0  0  0  0  0
   33.2635    7.0702   27.0530 C   0  0  0  0  0  0  0  0  0  0  0  0
   30.1291   10.8091   23.8430 C   0  0  2  0  0  0  0  0  0  0  0  0
   29.5777   11.4399   22.6989 N   0  0  0  0  0  0  0  0  0  0  0  0
   31.4585   10.2300   23.8496 C   0  0  0  0  0  0  0  0  0  0  0  0
   30.1575   12.4655   21.9720 C   0  0  0  0  0  0  0  0  0  0  0  0
   33.9175    6.4288   28.0538 C   0  0  2  0  0  0  0  0  0  0  0  0
   31.8916    9.6473   25.0526 C   0  0  0  0  0  0  0  0  0  0  0  0
   33.8768    6.6897   29.3147 C   0  0  0  0  0  0  0  0  0  0  0  0
   34.9824    5.6434   27.5681 N   0  0  0  0  0  0  0  0  0  0  0  0
   31.3422   12.8212   22.1765 O   0  0  0  0  0  0  0  0  0  0  0  0
   29.2225   13.1076   21.0681 N   0  0  0  0  0  0  0  0  0  0  0  0
   34.2517    5.6209   30.2272 N   0  0  0  0  0  0  0  0  0  0  0  0
   35.0777    4.6692   29.7847 C   0  0  0  0  0  0  0  0  0  0  0  0
   35.2309    4.4947   28.2970 C   0  0  0  0  0  0  0  0  0  0  0  0
  1  2  2  0
  2  3  1  0
  2  4  1  0
  3  5  1  0
  5  6  2  0
  5  7  1  0
  7  8  1  0
  4  9  1  0
  9 10  1  6
  9 11  1  0
 10 12  1  0
 13  8  1  6
  3 14  1  0
 11 14  1  0
 13 15  1  0
 13 16  1  0
 12 17  2  0
 12 18  1  0
 15 19  1  0
 19 20  1  0
 16 21  1  0
 20 21  1  0
M  END
$$$$
35
     RDKit          3D

 22 24  0  0  0  0  0  0  0  0999 V2000
   28.4769   10.5527   25.4471 O   0  0  0  0  0  0  0  0  0  0  0  0
   29.7668   10.1608   25.5102 C   0  0  2  0  0  0  0  0  0  0  0  0
   30.2762    9.5843   26.6820 C   0  0  1  0  0  0  0  0  0  0  0  0
   30.6425   10.5906   24.5262 C   0  0  1  0  0  0  0  0  0  0  0  0
   29.3977    9.1726   27.7744 O   0  0  0  0  0  0  0  0  0  0  0  0
   31.9640   10.1836   24.5978 C   0  0  1  0  0  0  0  0  0  0  0  0
   30.1072   11.3205   23.4876 C   0  0  0  0  0  0  0  0  0  0  0  0
   31.5128    8.8777   26.6746 C   0  0  1  0  0  0  0  0  0  0  0  0
   30.9772   11.7876   22.4611 O   0  0  0  0  0  0  0  0  0  0  0  0
   32.3977    9.3213   25.5961 C   0  0  0  0  0  0  0  0  0  0  0  0
   33.7276    8.7912   25.6474 N   0  0  0  0  0  0  0  0  0  0  0  0
   30.4557   12.5595   21.4378 C   0  0  0  0  0  0  0  0  0  0  0  0
   31.7304    8.0326   27.6527 O   0  0  0  0  0  0  0  0  0  0  0  0
   33.2424   10.3507   23.7693 C   0  0  2  0  0  0  0  0  0  0  0  0
   34.2120    9.5291   24.4600 C   0  0  0  0  0  0  0  0  0  0  0  0
   29.2512   13.0221   21.7024 C   0  0  0  0  0  0  0  0  0  0  0  0
   28.4637   12.3853   22.7313 O   0  0  0  0  0  0  0  0  0  0  0  0
   28.9488   11.6122   23.2523 C   0  0  0  0  0  0  0  0  0  0  0  0
   31.2351    6.7942   27.8658 C   0  0  0  0  0  0  0  0  0  0  0  0
   33.7468   11.7526   23.6523 C   0  0  0  0  0  0  0  0  0  0  0  0
   34.3768   11.9868   22.4582 O   0  0  0  0  0  0  0  0  0  0  0  0
   34.0999   12.4532   24.6769 O   0  0  0  0  0  0  0  0  0  0  0  0
  2  1  1  1
  2  3  1  0
  2  4  1  0
  3  5  1  6
  4  6  1  0
  4  7  1  6
  3  8  1  0
  7  9  1  0
  6 10  1  6
  8 10  1  0
 10 11  1  0
  9 12  1  0
  8 13  1  1
  6 14  1  0
 11 15  1  0
 14 15  1  0
 12 16  1  0
 16 17  1  0
  7 18  1  0
 17 18  1  0
 13 19  1  0
 14 20  1  1
 20 21  2  0
 20 22  1  0
M  END
$$$$
36
     RDKit          3D

 22 25  0  0  0  0  0  0  0  0999 V2000
   30.6804   12.8394   21.1336 C   0  0  0  0  0  0  0  0  0  0  0  0
   31.8325   12.6790   21.7882 C   0  0  2  0  0  0  0  0  0  0  0  0
   33.0447   13.1452   21.2602 C   0  0  0  0  0  0  0  0  0  0  0  0
   31.8973   11.9038   23.0333 C   0  0  0  0  0  0  0  0  0  0  0  0
   29.4892   12.2818   21.9263 C   0  0  0  0  0  0  0  0  0  0  0  0
   29.5979   11.5327   22.9939 C   0  0  0  0  0  0  0  0  0  0  0  0
   30.8007   11.3796   23.6119 C   0  0  1  0  0  0  0  0  0  0  0  0
   30.7946   10.5767   24.7656 C   0  0  2  0  0  0  0  0  0  0  0  0
   31.9342    9.8381   25.2004 C   0  0  2  0  0  0  0  0  0  0  0  0
   33.2478   11.6854   23.7357 C   0  0  0  0  0  0  0  0  0  0  0  0
   32.0263    9.1243   26.3308 N   0  0  0  0  0  0  0  0  0  0  0  0
   33.2266   10.6021   24.7221 C   0  0  0  0  0  0  0  0  0  0  0  0
   29.6003   10.1190   25.4852 C   0  0  0  0  0  0  0  0  0  0  0  0
   29.7351    9.4034   26.6723 C   0  0  2  0  0  0  0  0  0  0  0  0
   33.2897    8.4627   26.5423 C   0  0  0  0  0  0  0  0  0  0  0  0
   30.9102    8.8061   27.0316 C   0  0  2  0  0  0  0  0  0  0  0  0
   28.6368    9.1190   27.4023 O   0  0  0  0  0  0  0  0  0  0  0  0
   33.1555    7.3760   27.5654 C   0  0  0  0  0  0  0  0  0  0  0  0
   31.0963    8.0305   28.1819 C   0  0  0  0  0  0  0  0  0  0  0  0
   32.1267    7.1439   28.2406 C   0  0  0  0  0  0  0  0  0  0  0  0
   34.3339    6.5328   27.7364 O   0  0  0  0  0  0  0  0  0  0  0  0
   34.2317    5.3552   28.1915 C   0  0  0  0  0  0  0  0  0  0  0  0
  1  2  1  0
  2  3  1  6
  2  4  1  0
  1  5  1  0
  5  6  1  0
  4  7  1  0
  7  6  1  6
  7  8  1  0
  8  9  1  0
  4 10  1  0
  9 11  1  0
  9 12  1  1
 10 12  1  0
  8 13  1  6
 13 14  1  0
 11 15  1  0
 11 16  1  0
 14 16  1  0
 14 17  1  6
 15 18  1  0
 16 19  1  1
 18 20  1  0
 19 20  1  0
 18 21  1  0
 21 22  1  0
M  END
$$$$
37
     RDKit          3D

 22 23  0  0  0  0  0  0  0  0999 V2000
   29.0266   10.0667   27.2111 O   0  0  0  0  0  0  0  0  0  0  0  0
   29.7639   10.1204   26.1590 C   0  0  0  0  0  0  0  0  0  0  0  0
   31.0705    9.7100   26.2220 N   0  0  0  0  0  0  0  0  0  0  0  0
   29.3358   10.6772   24.9497 N   0  0  0  0  0  0  0  0  0  0  0  0
   31.5445    8.9068   27.2992 C   0  0  0  0  0  0  0  0  0  0  0  0
   30.8270    8.2918   28.2023 O   0  0  0  0  0  0  0  0  0  0  0  0
   32.9860    8.5051   27.3779 C   0  0  0  0  0  0  0  0  0  0  0  0
   33.2635    7.0702   27.0530 C   0  0  0  0  0  0  0  0  0  0  0  0
   30.1291   10.8091   23.8430 C   0  0  2  0  0  0  0  0  0  0  0  0
   29.5777   11.4399   22.6989 N   0  0  0  0  0  0  0  0  0  0  0  0
   31.4585   10.2300   23.8496 C   0  0  0  0  0  0  0  0  0  0  0  0
   30.1575   12.4655   21.9720 C   0  0  0  0  0  0  0  0  0  0  0  0
   33.9175    6.4288   28.0538 C   0  0  2  0  0  0  0  0  0  0  0  0
   31.8916    9.6473   25.0526 C   0  0  0  0  0  0  0  0  0  0  0  0
   33.8768    6.6897   29.3147 C   0  0  0  0  0  0  0  0  0  0  0  0
   34.9824    5.6434   27.5681 N   0  0  0  0  0  0  0  0  0  0  0  0
   31.3422   12.8212   22.1765 O   0  0  0  0  0  0  0  0  0  0  0  0
   29.2225   13.1076   21.0681 N   0  0  0  0  0  0  0  0  0  0  0  0
   34.2517    5.6209   30.2272 N   0  0  0  0  0  0  0  0  0  0  0  0
   35.0777    4.6692   29.7847 C   0  0  0  0  0  0  0  0  0  0  0  0
   35.1066    5.3500   26.3368 C   0  0  0  0  0  0  0  0  0  0  0  0
   35.5712    4.7247   28.5506 C   0  0  0  0  0  0  0  0  0  0  0  0
  1  2  2  0
  2  3  1  0
  2  4  1  0
  3  5  1  0
  5  6  2  0
  5  7  1  0
  7  8  1  0
  4  9  1  0
  9 10  1  6
  9 11  1  0
 10 12  1  0
 13  8  1  6
  3 14  1  0
 11 14  1  0
 13 15  1  0
 13 16  1  0
 12 17  2  0
 12 18  1  0
 15 19  1  0
 19 20  1  0
 16 21  1  0
 16 22  1  0
 20 22  1  0
M  END
$$$$
38
     RDKit          3D

 22 24  0  0  0  0  0  0  0  0999 V2000
   29.2592   12.1480   22.0997 N   0  0  0  0  0  0  0  0  0  0  0  0
   29.9475   11.5788   22.9692 C   0  0  1  0  0  0  0  0  0  0  0  0
   29.5900   10.6653   23.8593 N   0  0  0  0  0  0  0  0  0  0  0  0
   30.1064   10.1937   24.9846 C   0  0  1  0  0  0  0  0  0  0  0  0
   31.3865   11.6816   23.1267 C   0  0  1  0  0  0  0  0  0  0  0  0
   29.6145    9.3399   25.9049 O   0  0  0  0  0  0  0  0  0  0  0  0
   31.9876   12.6887   22.1472 C   0  0  0  0  0  0  0  0  0  0  0  0
   32.1168   11.1691   24.2245 C   0  0  2  0  0  0  0  0  0  0  0  0
   33.5163   11.5818   24.3382 C   0  0  0  0  0  0  0  0  0  0  0  0
   30.2891    9.0225   27.1162 C   0  0  1  0  0  0  0  0  0  0  0  0
   31.5033   12.9032   21.1300 O   0  0  0  0  0  0  0  0  0  0  0  0
   29.8051    8.2034   27.9192 O   0  0  0  0  0  0  0  0  0  0  0  0
   31.5473   10.2808   25.0712 C   0  0  1  0  0  0  0  0  0  0  0  0
   31.9687    9.5536   26.3036 C   0  0  0  0  0  0  0  0  0  0  0  0
   30.6217    6.8699   27.6035 C   0  0  0  0  0  0  0  0  0  0  0  0
   33.4302   12.6994   22.2737 C   0  0  0  0  0  0  0  0  0  0  0  0
   34.1154   12.1473   23.3651 C   0  0  0  0  0  0  0  0  0  0  0  0
   31.7293    6.7749   28.5736 C   0  0  0  0  0  0  0  0  0  0  0  0
   33.0278    7.0377   28.0860 O   0  0  0  0  0  0  0  0  0  0  0  0
   34.1507    6.3133   28.6482 C   0  0  0  0  0  0  0  0  0  0  0  0
   34.4186    5.0506   27.8997 C   0  0  0  0  0  0  0  0  0  0  0  0
   35.3150    4.1829   28.4796 O   0  0  0  0  0  0  0  0  0  0  0  0
  2  1  1  6
  2  3  1  0
  4  3  1  6
  2  5  1  0
  4  6  1  0
  5  7  1  1
  5  8  1  0
  8  9  1  6
  6 10  1  0
  7 11  2  0
 10 12  1  6
  4 13  1  0
  8 13  1  0
 10 14  1  0
 13 14  1  1
 12 15  1  0
  7 16  1  0
  9 17  1  0
 16 17  1  0
 15 18  1  0
 18 19  1  0
 19 20  1  0
 20 21  1  0
 21 22  1  0
M  END
$$$$
39
     RDKit          3D

 22 24  0  0  0  0  0  0  0  0999 V2000
   29.2592   12.1480   22.0997 C   0  0  2  0  0  0  0  0  0  0  0  0
   29.6030   11.4340   23.1202 C   0  0  1  0  0  0  0  0  0  0  0  0
   30.9988   11.4509   23.4484 C   0  0  0  0  0  0  0  0  0  0  0  0
   27.8873   12.2810   21.7439 F   0  0  0  0  0  0  0  0  0  0  0  0
   28.8379   10.7066   23.9912 C   0  0  0  0  0  0  0  0  0  0  0  0
   29.4188   10.0733   25.1446 C   0  0  0  0  0  0  0  0  0  0  0  0
   30.7791   10.1382   25.3649 C   0  0  1  0  0  0  0  0  0  0  0  0
   31.6171   10.9167   24.5098 C   0  0  1  0  0  0  0  0  0  0  0  0
   33.0561   10.8624   24.7697 C   0  0  1  0  0  0  0  0  0  0  0  0
   31.2985    9.4809   26.5356 O   0  0  0  0  0  0  0  0  0  0  0  0
   30.0198   12.7132   21.2002 C   0  0  0  0  0  0  0  0  0  0  0  0
   33.7714    9.6614   24.5973 N   0  0  0  0  0  0  0  0  0  0  0  0
   31.9604   12.1303   22.5228 C   0  0  2  0  0  0  0  0  0  0  0  0
   33.7280    8.6830   25.4421 C   0  0  0  0  0  0  0  0  0  0  0  0
   33.3769   12.2006   22.8406 C   0  0  0  0  0  0  0  0  0  0  0  0
   33.7356    7.3364   25.0223 C   0  0  0  0  0  0  0  0  0  0  0  0
   31.4159   12.7504   21.4042 C   0  0  0  0  0  0  0  0  0  0  0  0
   30.4223    8.5959   27.3452 C   0  0  0  0  0  0  0  0  0  0  0  0
   34.1660    6.3411   25.6827 O   0  0  0  0  0  0  0  0  0  0  0  0
   33.6282    8.4240   26.7105 O   0  0  0  0  0  0  0  0  0  0  0  0
   33.8718   11.7243   23.8421 C   0  0  0  0  0  0  0  0  0  0  0  0
   32.5439    6.8940   24.3056 O   0  0  0  0  0  0  0  0  0  0  0  0
  1  2  1  0
  2  3  1  0
  1  4  1  6
  2  5  1  1
  5  6  1  0
  6  7  1  0
  8  3  1  6
  7  8  1  0
  8  9  1  0
  7 10  1  1
  1 11  1  0
  9 12  1  6
  3 13  1  0
 12 14  1  0
 13 15  1  1
 14 16  1  0
 11 17  1  0
 13 17  1  0
 10 18  1  0
 16 19  1  0
 14 20  2  0
  9 21  1  0
 15 21  1  0
 16 22  2  0
M  END
$$$$
4
     RDKit          3D

 16 17  0  0  0  0  0  0  0  0999 V2000
   31.7613   12.5681   21.4506 C   0  0  0  0  0  0  0  0  0  0  0  0
   30.5690   12.4930   21.6552 C   0  0  0  0  0  0  0  0  0  0  0  0
   30.0980   11.8147   22.8345 C   0  0  0  0  0  0  0  0  0  0  0  0
   31.0133   11.4722   23.6547 C   0  0  1  0  0  0  0  0  0  0  0  0
   30.5904   10.7121   24.9318 C   0  0  0  0  0  0  0  0  0  0  0  0
   28.7234   11.5185   23.0331 N   0  0  0  0  0  0  0  0  0  0  0  0
   32.3806   11.2919   23.3120 C   0  0  1  0  0  0  0  0  0  0  0  0
   31.3847    9.7815   25.5422 C   0  0  1  0  0  0  0  0  0  0  0  0
   32.8042   12.0873   22.2281 N   0  0  0  0  0  0  0  0  0  0  0  0
   33.2549   10.7452   24.2142 C   0  0  2  0  0  0  0  0  0  0  0  0
   34.6760   10.6865   23.8590 C   0  0  0  0  0  0  0  0  0  0  0  0
   34.9745   10.1169   22.5547 O   0  0  0  0  0  0  0  0  0  0  0  0
   32.8939    9.8820   25.2302 C   0  0  0  0  0  0  0  0  0  0  0  0
   31.0645    8.9164   26.8144 C   0  0  0  0  0  0  0  0  0  0  0  0
   30.0920    9.3309   27.5269 O   0  0  0  0  0  0  0  0  0  0  0  0
   31.5597    7.7971   26.9481 O   0  0  0  0  0  0  0  0  0  0  0  0
  1  2  1  0
  2  3  1  0
  3  4  1  0
  4  5  1  6
  3  6  1  0
  4  7  1  0
  5  8  1  0
  1  9  1  0
  7  9  1  1
  7 10  1  0
 10 11  1  6
 11 12  1  0
  8 13  1  0
 10 13  1  0
  8 14  1  1
 14 15  2  0
 14 16  1  0
M  END
$$$$
40
     RDKit          3D

 22 23  0  0  0  0  0  0  0  0999 V2000
   30.6804   12.8394   21.1336 C   0  0  0  0  0  0  0  0  0  0  0  0
   31.8325   12.6790   21.7882 C   0  0  0  0  0  0  0  0  0  0  0  0
   29.6845   12.2953   22.0884 C   0  0  0  0  0  0  0  0  0  0  0  0
   29.9509   11.6013   23.2327 C   0  0  2  0  0  0  0  0  0  0  0  0
   31.1187   11.4414   23.4818 C   0  0  1  0  0  0  0  0  0  0  0  0
   32.2019   11.9961   22.8270 C   0  0  0  0  0  0  0  0  0  0  0  0
   31.5811   10.7280   24.8769 C   0  0  0  0  0  0  0  0  0  0  0  0
   28.8541   11.0100   24.0295 N   0  0  0  0  0  0  0  0  0  0  0  0
   29.1688   10.3457   25.0215 C   0  0  2  0  0  0  0  0  0  0  0  0
   33.8691   11.9578   23.1834 Cl  0  0  0  0  0  0  0  0  0  0  0  0
   28.1700    9.8667   25.8556 N   0  0  0  0  0  0  0  0  0  0  0  0
   30.4942   10.1358   25.5070 C   0  0  2  0  0  0  0  0  0  0  0  0
   30.7192    9.3853   26.7824 C   0  0  0  0  0  0  0  0  0  0  0  0
   31.9189    8.7904   27.1045 O   0  0  0  0  0  0  0  0  0  0  0  0
   31.9552    7.4741   27.7517 C   0  0  0  0  0  0  0  0  0  0  0  0
   29.6979    9.0968   27.6352 O   0  0  0  0  0  0  0  0  0  0  0  0
   33.1403    7.0985   28.2090 C   0  0  0  0  0  0  0  0  0  0  0  0
   33.2068    5.9516   29.0840 C   0  0  0  0  0  0  0  0  0  0  0  0
   32.0095    5.4137   29.5718 C   0  0  0  0  0  0  0  0  0  0  0  0
   31.9687    4.3333   30.5765 C   0  0  0  0  0  0  0  0  0  0  0  0
   32.8241    3.3460   30.4610 O   0  0  0  0  0  0  0  0  0  0  0  0
   31.2137    4.3654   31.6344 O   0  0  0  0  0  0  0  0  0  0  0  0
  1  2  1  0
  1  3  1  0
  4  3  1  6
  4  5  1  0
  2  6  1  0
  5  6  1  0
  5  7  1  1
  4  8  1  0
  8  9  1  0
  6 10  1  0
  9 11  1  1
  7 12  1  0
  9 12  1  0
 12 13  1  1
 13 14  1  0
 14 15  1  0
 13 16  2  0
 15 17  1  0
 17 18  1  0
 18 19  1  0
 19 20  1  0
 20 21  1  0
 20 22  2  0
M  END
$$$$
41
     RDKit          3D

 22 24  0  0  0  0  0  0  0  0999 V2000
   30.6804   12.8394   21.1336 C   0  0  0  0  0  0  0  0  0  0  0  0
   31.8325   12.6790   21.7882 C   0  0  0  0  0  0  0  0  0  0  0  0
   29.6845   12.2953   22.0884 C   0  0  0  0  0  0  0  0  0  0  0  0
   29.9509   11.6013   23.2327 C   0  0  2  0  0  0  0  0  0  0  0  0
   31.1187   11.4414   23.4818 C   0  0  1  0  0  0  0  0  0  0  0  0
   32.2019   11.9961   22.8270 C   0  0  0  0  0  0  0  0  0  0  0  0
   31.5811   10.7280   24.8769 C   0  0  0  0  0  0  0  0  0  0  0  0
   28.8541   11.0100   24.0295 N   0  0  0  0  0  0  0  0  0  0  0  0
   29.1688   10.3457   25.0215 C   0  0  2  0  0  0  0  0  0  0  0  0
   33.8691   11.9578   23.1834 Cl  0  0  0  0  0  0  0  0  0  0  0  0
   28.1700    9.8667   25.8556 N   0  0  0  0  0  0  0  0  0  0  0  0
   30.4744   10.2405   25.5699 C   0  0  1  0  0  0  0  0  0  0  0  0
   30.8258    9.4689   26.8718 C   0  0  0  0  0  0  0  0  0  0  0  0
   31.9288    8.7802   27.0737 N   0  0  0  0  0  0  0  0  0  0  0  0
   29.7758    9.4245   27.6943 O   0  0  0  0  0  0  0  0  0  0  0  0
   32.9718    8.6628   26.0885 C   0  0  0  0  0  0  0  0  0  0  0  0
   31.8440    7.6087   27.8886 C   0  0  0  0  0  0  0  0  0  0  0  0
   33.1389    7.1650   28.3949 C   0  0  0  0  0  0  0  0  0  0  0  0
   34.2354    8.0204   26.6736 C   0  0  0  0  0  0  0  0  0  0  0  0
   34.0061    6.8417   27.3475 N   0  0  0  0  0  0  0  0  0  0  0  0
   34.6284    5.6253   27.2339 C   0  0  0  0  0  0  0  0  0  0  0  0
   34.5152    4.8051   27.9564 O   0  0  0  0  0  0  0  0  0  0  0  0
  1  2  1  0
  1  3  1  0
  4  3  1  6
  4  5  1  0
  2  6  1  0
  5  6  1  0
  5  7  1  1
  4  8  1  0
  8  9  1  0
  6 10  1  0
  9 11  1  1
  7 12  1  0
  9 12  1  0
 12 13  1  6
 13 14  1  0
 13 15  2  0
 14 16  1  0
 14 17  1  0
 17 18  1  0
 16 19  1  0
 18 20  1  0
 19 20  1  0
 20 21  1  0
 21 22  2  0
M  END
$$$$
42
     RDKit          3D

 23 25  0  0  0  0  0  0  0  0999 V2000
   31.7613   12.5681   21.4506 C   0  0  0  0  0  0  0  0  0  0  0  0
   32.6486   12.2667   22.5404 C   0  0  0  0  0  0  0  0  0  0  0  0
   30.4353   12.4290   21.8449 C   0  0  1  0  0  0  0  0  0  0  0  0
   29.3572   12.8083   20.9912 N   0  0  0  0  0  0  0  0  0  0  0  0
   30.2387   11.7380   23.0871 C   0  0  2  0  0  0  0  0  0  0  0  0
   28.8187   11.5791   23.3701 O   0  0  0  0  0  0  0  0  0  0  0  0
   31.1892   11.4236   23.9091 C   0  0  0  0  0  0  0  0  0  0  0  0
   32.3531   11.6632   23.5290 C   0  0  0  0  0  0  0  0  0  0  0  0
   30.7218   10.7656   25.2474 C   0  0  0  0  0  0  0  0  0  0  0  0
   30.9574    9.5979   25.4634 C   0  0  0  0  0  0  0  0  0  0  0  0
   31.7359    8.6542   24.6735 C   0  0  1  0  0  0  0  0  0  0  0  0
   33.0820    8.3380   25.2672 C   0  0  2  0  0  0  0  0  0  0  0  0
   30.3658    9.1265   26.7940 C   0  0  0  0  0  0  0  0  0  0  0  0
   33.7667    7.2814   24.6323 C   0  0  1  0  0  0  0  0  0  0  0  0
   33.4662    8.6356   26.4577 O   0  0  0  0  0  0  0  0  0  0  0  0
   33.1989    6.8926   23.3148 C   0  0  1  0  0  0  0  0  0  0  0  0
   35.1670    7.0241   24.5843 C   0  0  0  0  0  0  0  0  0  0  0  0
   33.9708    6.0030   22.5733 C   0  0  0  0  0  0  0  0  0  0  0  0
   31.6820    6.8414   23.3613 C   0  0  0  0  0  0  0  0  0  0  0  0
   30.5331    7.9406   27.2957 O   0  0  0  0  0  0  0  0  0  0  0  0
   29.6151    9.9408   27.5018 O   0  0  0  0  0  0  0  0  0  0  0  0
   31.0229    7.6153   24.0468 C   0  0  0  0  0  0  0  0  0  0  0  0
   35.4536    6.1844   23.2486 C   0  0  0  0  0  0  0  0  0  0  0  0
  1  2  1  0
  1  3  1  0
  3  4  1  6
  3  5  1  0
  5  6  1  1
  5  7  1  0
  2  8  1  0
  7  8  1  0
  7  9  1  0
  9 10  2  3
 10 11  1  0
 11 12  1  0
 10 13  1  0
 12 14  1  0
 12 15  1  1
 14 16  1  0
 14 17  1  6
 16 18  1  1
 16 19  1  0
 13 20  2  0
 13 21  1  0
 11 22  1  1
 19 22  1  0
 17 23  1  0
 18 23  1  0
M  END
$$$$
43
     RDKit          3D

 23 25  0  0  0  0  0  0  0  0999 V2000
   34.2800   12.5589   23.2846 C   0  0  0  0  0  0  0  0  0  0  0  0
   34.4152   11.3380   23.7858 C   0  0  0  0  0  0  0  0  0  0  0  0
   33.4984   10.4098   23.7437 C   0  0  1  0  0  0  0  0  0  0  0  0
   33.6876    9.0287   24.3144 C   0  0  2  0  0  0  0  0  0  0  0  0
   32.7339    8.2887   24.8895 N   0  0  0  0  0  0  0  0  0  0  0  0
   32.0946   10.6836   23.4931 C   0  0  1  0  0  0  0  0  0  0  0  0
   34.9322    8.3759   24.3812 N   0  0  0  0  0  0  0  0  0  0  0  0
   31.3086    8.6655   24.7277 C   0  0  0  0  0  0  0  0  0  0  0  0
   32.7743    6.9931   25.6519 C   0  0  0  0  0  0  0  0  0  0  0  0
   30.3477    7.9431   25.3038 O   0  0  0  0  0  0  0  0  0  0  0  0
   33.9463    6.9690   26.3220 O   0  0  0  0  0  0  0  0  0  0  0  0
   31.0259    9.8230   23.9466 N   0  0  0  0  0  0  0  0  0  0  0  0
   31.8586   11.9476   22.9704 C   0  0  1  0  0  0  0  0  0  0  0  0
   34.0233    6.2213   27.4559 C   0  0  0  0  0  0  0  0  0  0  0  0
   34.8966    5.4115   27.8451 C   0  0  0  0  0  0  0  0  0  0  0  0
   34.8970    4.6753   28.8813 C   0  0  0  0  0  0  0  0  0  0  0  0
   33.9438    4.7992   29.9189 C   0  0  0  0  0  0  0  0  0  0  0  0
   32.8171   12.9443   22.8479 C   0  0  0  0  0  0  0  0  0  0  0  0
   33.0568    6.3792   28.6949 C   0  0  0  0  0  0  0  0  0  0  0  0
   33.0743    5.6831   29.6927 C   0  0  0  0  0  0  0  0  0  0  0  0
   30.4004   12.4142   22.2648 C   0  0  0  0  0  0  0  0  0  0  0  0
   29.4776   12.6287   23.1289 O   0  0  0  0  0  0  0  0  0  0  0  0
   30.0562   12.1552   21.0896 O   0  0  0  0  0  0  0  0  0  0  0  0
  1  2  1  0
  3  2  1  1
  3  4  1  0
  4  5  1  0
  3  6  1  0
  4  7  1  1
  5  8  1  0
  5  9  1  0
  8 10  2  0
  9 11  1  0
  6 12  1  1
  8 12  1  0
  6 13  1  0
 11 14  1  0
 14 15  1  0
 15 16  1  0
 16 17  1  0
  1 18  1  0
 13 18  1  0
 14 19  1  0
 17 20  1  0
 19 20  1  0
 13 21  1  6
 21 22  1  0
 21 23  2  0
M  END
$$$$
44
     RDKit          3D

 23 25  0  0  0  0  0  0  0  0999 V2000
   30.4746    8.5754   27.9513 N   0  0  0  0  0  0  0  0  0  0  0  0
   31.2692    7.6013   27.6517 C   0  0  0  0  0  0  0  0  0  0  0  0
   30.2294    9.4714   27.0107 C   0  0  0  0  0  0  0  0  0  0  0  0
   32.0007    7.7285   26.7775 N   0  0  0  0  0  0  0  0  0  0  0  0
   33.1357    6.7742   26.3728 C   0  0  2  0  0  0  0  0  0  0  0  0
   33.4594    5.9629   27.2168 O   0  0  0  0  0  0  0  0  0  0  0  0
   31.8510    8.7568   25.8344 C   0  0  1  0  0  0  0  0  0  0  0  0
   34.7153    5.2168   27.1100 C   0  0  0  0  0  0  0  0  0  0  0  0
   32.8740    8.8231   24.7618 N   0  0  0  0  0  0  0  0  0  0  0  0
   33.8573    7.1606   25.1757 C   0  0  0  0  0  0  0  0  0  0  0  0
   32.5513   10.0033   23.9170 C   0  0  1  0  0  0  0  0  0  0  0  0
   31.3715   10.4991   24.3798 C   0  0  2  0  0  0  0  0  0  0  0  0
   29.2286   10.4294   27.1754 O   0  0  0  0  0  0  0  0  0  0  0  0
   30.9257    9.7231   25.5921 C   0  0  2  0  0  0  0  0  0  0  0  0
   33.8328    8.0303   24.4065 C   0  0  0  0  0  0  0  0  0  0  0  0
   34.5837    8.1558   23.3015 O   0  0  0  0  0  0  0  0  0  0  0  0
   30.2756   10.7049   23.5181 C   0  0  0  0  0  0  0  0  0  0  0  0
   33.5876   10.7602   23.2688 N   0  0  0  0  0  0  0  0  0  0  0  0
   28.9134   10.5679   23.9123 O   0  0  0  0  0  0  0  0  0  0  0  0
   33.9530   12.0478   23.6065 C   0  0  0  0  0  0  0  0  0  0  0  0
   31.1348    6.4120   28.4601 O   0  0  0  0  0  0  0  0  0  0  0  0
   30.3321   11.5245   22.4285 N   0  0  0  0  0  0  0  0  0  0  0  0
   29.2486   11.9763   21.5606 O   0  0  0  0  0  0  0  0  0  0  0  0
  1  2  1  0
  1  3  1  0
  2  4  1  0
  4  5  1  0
  5  6  1  1
  7  4  1  6
  6  8  1  0
  7  9  1  0
  5 10  1  0
  9 11  1  0
 11 12  1  0
  3 13  2  0
 14  3  1  1
  7 14  1  0
 12 14  1  0
  9 15  1  0
 10 15  1  0
 15 16  2  0
 12 17  1  6
 11 18  1  1
 17 19  2  0
 18 20  1  0
  2 21  2  0
 17 22  1  0
 22 23  1  0
M  END
$$$$
45
     RDKit          3D

 23 25  0  0  0  0  0  0  0  0999 V2000
   29.3919   11.6711   22.3202 N   0  0  0  0  0  0  0  0  0  0  0  0
   29.9093   11.2007   23.3313 C   0  0  1  0  0  0  0  0  0  0  0  0
   30.0583   12.6248   21.5079 C   0  0  2  0  0  0  0  0  0  0  0  0
   29.4621   13.1455   20.4256 N   0  0  0  0  0  0  0  0  0  0  0  0
   31.4026   12.8235   21.8529 N   0  0  0  0  0  0  0  0  0  0  0  0
   31.9306   12.1757   22.8797 C   0  0  2  0  0  0  0  0  0  0  0  0
   29.3031   10.3172   24.1633 N   0  0  0  0  0  0  0  0  0  0  0  0
   31.2992   11.4246   23.6615 C   0  0  0  0  0  0  0  0  0  0  0  0
   31.6391   10.7436   24.8413 C   0  0  0  0  0  0  0  0  0  0  0  0
   33.4142   12.6760   22.9923 C   0  0  0  0  0  0  0  0  0  0  0  0
   34.2314   11.8664   23.6403 C   0  0  0  0  0  0  0  0  0  0  0  0
   34.8308   10.7354   22.8479 O   0  0  0  0  0  0  0  0  0  0  0  0
   30.3614   10.0657   25.1633 C   0  0  0  0  0  0  0  0  0  0  0  0
   35.3014    9.7379   23.3576 C   0  0  0  0  0  0  0  0  0  0  0  0
   30.2281    9.2268   26.3875 C   0  0  0  0  0  0  0  0  0  0  0  0
   34.5046    8.6179   23.2871 C   0  0  0  0  0  0  0  0  0  0  0  0
   34.8800    7.4420   23.9780 C   0  0  0  0  0  0  0  0  0  0  0  0
   34.1683    6.7716   24.7197 C   0  0  0  0  0  0  0  0  0  0  0  0
   29.2536    9.4040   27.1188 O   0  0  0  0  0  0  0  0  0  0  0  0
   31.0365    8.3061   26.6460 N   0  0  0  0  0  0  0  0  0  0  0  0
   32.1270    7.7818   25.8595 C   0  0  0  0  0  0  0  0  0  0  0  0
   33.4587    7.7664   26.2811 C   0  0  0  0  0  0  0  0  0  0  0  0
   30.7393    7.4323   27.7843 C   0  0  0  0  0  0  0  0  0  0  0  0
  2  1  1  6
  1  3  1  0
  3  4  1  6
  3  5  1  0
  5  6  1  0
  2  7  1  0
  2  8  1  0
  6  8  1  0
  8  9  1  0
  6 10  1  1
 10 11  1  0
 11 12  1  0
  7 13  1  0
  9 13  1  0
 12 14  1  0
 13 15  1  0
 14 16  1  0
 16 17  1  0
 17 18  1  0
 15 19  2  0
 15 20  1  0
 20 21  1  0
 18 22  1  0
 21 22  1  0
 20 23  1  0
M  END
$$$$
46
     RDKit          3D

 23 26  0  0  0  0  0  0  0  0999 V2000
   29.2592   12.1480   22.0997 C   0  0  0  0  0  0  0  0  0  0  0  0
   29.6030   11.4340   23.1202 N   0  0  0  0  0  0  0  0  0  0  0  0
   28.8378   10.7477   23.9266 N   0  0  0  0  0  0  0  0  0  0  0  0
   29.3489   10.1959   25.0666 C   0  0  0  0  0  0  0  0  0  0  0  0
   29.8629   12.8817   21.3541 C   0  0  0  0  0  0  0  0  0  0  0  0
   30.7950   10.1811   25.1469 C   0  0  0  0  0  0  0  0  0  0  0  0
   31.4751    9.4461   26.1942 N   0  0  0  0  0  0  0  0  0  0  0  0
   31.2436   12.6299   21.6128 C   0  0  0  0  0  0  0  0  0  0  0  0
   32.6622    8.8704   25.8949 C   0  0  2  0  0  0  0  0  0  0  0  0
   31.4745   10.9078   24.1592 C   0  0  0  0  0  0  0  0  0  0  0  0
   32.9944   10.9409   24.2755 C   0  0  2  0  0  0  0  0  0  0  0  0
   30.9616   11.5865   23.0251 C   0  0  1  0  0  0  0  0  0  0  0  0
   30.6189    9.0011   27.2926 C   0  0  0  0  0  0  0  0  0  0  0  0
   33.8404   11.6470   23.5464 C   0  0  0  0  0  0  0  0  0  0  0  0
   34.0777   12.9213   23.6466 C   0  0  0  0  0  0  0  0  0  0  0  0
   33.5253    9.6378   24.9906 C   0  0  0  0  0  0  0  0  0  0  0  0
   32.8519    7.4726   25.9440 C   0  0  0  0  0  0  0  0  0  0  0  0
   34.4817   11.0592   22.4602 O   0  0  0  0  0  0  0  0  0  0  0  0
   31.2140    8.1257   28.1189 C   0  0  0  0  0  0  0  0  0  0  0  0
   32.4474    7.2286   27.5128 C   0  0  2  0  0  0  0  0  0  0  0  0
   33.4657    7.2863   28.4759 C   0  0  0  0  0  0  0  0  0  0  0  0
   34.5241    6.4438   27.9723 O   0  0  0  0  0  0  0  0  0  0  0  0
   34.9787    5.3841   28.8849 C   0  0  0  0  0  0  0  0  0  0  0  0
  1  2  1  0
  2  3  1  0
  3  4  1  0
  1  5  1  0
  4  6  1  0
  6  7  1  0
  5  8  1  0
  7  9  1  0
  6 10  1  0
 10 11  1  0
  2 12  1  0
 12  8  1  1
 10 12  1  0
  7 13  1  0
 11 14  1  6
 14 15  1  0
  9 16  1  6
 11 16  1  0
  9 17  1  0
 14 18  2  0
 13 19  1  0
 17 20  1  0
 19 20  1  0
 20 21  1  1
 21 22  1  0
 22 23  1  0
M  END
$$$$
47
     RDKit          3D

 23 25  0  0  0  0  0  0  0  0999 V2000
   28.6081   10.4635   23.7013 O   0  0  0  0  0  0  0  0  0  0  0  0
   29.8620   10.7534   23.9510 C   0  0  2  0  0  0  0  0  0  0  0  0
   30.6988   11.2779   23.0864 C   0  0  1  0  0  0  0  0  0  0  0  0
   30.4834   10.1014   25.1678 C   0  0  1  0  0  0  0  0  0  0  0  0
   29.6263    9.5182   26.1453 O   0  0  0  0  0  0  0  0  0  0  0  0
   30.1155   11.8787   21.9119 C   0  0  0  0  0  0  0  0  0  0  0  0
   31.7430    9.7916   25.1827 C   0  0  2  0  0  0  0  0  0  0  0  0
   32.2223    9.0961   26.3548 O   0  0  0  0  0  0  0  0  0  0  0  0
   30.8577   12.7429   21.1209 C   0  0  0  0  0  0  0  0  0  0  0  0
   32.0965   11.2585   23.4139 C   0  0  0  0  0  0  0  0  0  0  0  0
   32.9895   12.0955   22.5250 C   0  0  0  0  0  0  0  0  0  0  0  0
   29.1260   10.3609   27.1966 C   0  0  0  0  0  0  0  0  0  0  0  0
   32.3253   12.7853   21.3682 C   0  0  0  0  0  0  0  0  0  0  0  0
   32.6256   10.5133   24.4172 C   0  0  0  0  0  0  0  0  0  0  0  0
   31.6790    7.8103   26.7000 C   0  0  0  0  0  0  0  0  0  0  0  0
   32.2899    7.3530   27.8940 C   0  0  1  0  0  0  0  0  0  0  0  0
   31.3576    6.8504   28.8356 C   0  0  0  0  0  0  0  0  0  0  0  0
   33.5743    7.2490   28.1348 C   0  0  0  0  0  0  0  0  0  0  0  0
   31.9792    6.2003   29.9727 C   0  0  0  0  0  0  0  0  0  0  0  0
   33.3122    6.0760   30.0103 C   0  0  2  0  0  0  0  0  0  0  0  0
   33.7926    5.3631   31.2358 O   0  0  0  0  0  0  0  0  0  0  0  0
   34.1709    6.6200   29.1722 C   0  0  0  0  0  0  0  0  0  0  0  0
   33.5391    4.0840   31.3700 C   0  0  0  0  0  0  0  0  0  0  0  0
  2  1  1  6
  2  3  1  0
  2  4  1  0
  4  5  1  6
  3  6  1  1
  4  7  1  0
  7  8  1  1
  6  9  1  0
  3 10  1  0
 10 11  1  0
  5 12  1  0
  9 13  1  0
 11 13  1  0
  7 14  1  0
 10 14  1  0
  8 15  1  0
 16 15  1  6
 16 17  1  0
 16 18  1  0
 17 19  1  0
 19 20  1  0
 20 21  1  1
 18 22  1  0
 20 22  1  0
 21 23  1  0
M  END
$$$$
48
     RDKit          3D

 23 26  0  0  0  0  0  0  0  0999 V2000
   30.5414    8.7410   28.0699 C   0  0  0  0  0  0  0  0  0  0  0  0
   30.1417    9.6363   27.2235 N   0  0  0  0  0  0  0  0  0  0  0  0
   30.7039    9.7158   25.9564 C   0  0  0  0  0  0  0  0  0  0  0  0
   30.2794   10.6967   25.0596 C   0  0  1  0  0  0  0  0  0  0  0  0
   31.5027    7.8655   27.7519 C   0  0  2  0  0  0  0  0  0  0  0  0
   30.9196   10.9727   23.8354 C   0  0  1  0  0  0  0  0  0  0  0  0
   32.0903    7.8568   26.4842 C   0  0  0  0  0  0  0  0  0  0  0  0
   29.0556   11.3111   25.1768 N   0  0  0  0  0  0  0  0  0  0  0  0
   28.4838   11.6292   24.1588 N   0  0  0  0  0  0  0  0  0  0  0  0
   31.6950    8.8018   25.5256 C   0  0  2  0  0  0  0  0  0  0  0  0
   31.8412    6.8553   28.7636 C   0  0  0  0  0  0  0  0  0  0  0  0
   29.5581   11.6800   23.1826 C   0  0  1  0  0  0  0  0  0  0  0  0
   31.9680    5.6350   28.5464 O   0  0  0  0  0  0  0  0  0  0  0  0
   32.1298   10.9929   23.3016 C   0  0  1  0  0  0  0  0  0  0  0  0
   33.1756   10.3332   23.8399 C   0  0  2  0  0  0  0  0  0  0  0  0
   29.9414   12.1934   21.8622 C   0  0  0  0  0  0  0  0  0  0  0  0
   28.9055   12.7889   21.1589 N   0  0  0  0  0  0  0  0  0  0  0  0
   31.2823   12.1343   21.3550 C   0  0  0  0  0  0  0  0  0  0  0  0
   32.9215    9.0567   24.6871 C   0  0  0  0  0  0  0  0  0  0  0  0
   32.2328    7.2924   29.9612 O   0  0  0  0  0  0  0  0  0  0  0  0
   34.4847   10.7776   23.9756 C   0  0  0  0  0  0  0  0  0  0  0  0
   35.2903   10.4024   22.9009 O   0  0  0  0  0  0  0  0  0  0  0  0
   32.2778   11.6718   22.0802 C   0  0  0  0  0  0  0  0  0  0  0  0
  1  2  1  0
  2  3  1  0
  3  4  1  0
  1  5  1  0
  6  4  1  1
  5  7  1  0
  4  8  1  6
  8  9  1  0
  3 10  1  0
 10  7  1  1
  5 11  1  6
  6 12  1  0
 12  9  1  1
 11 13  2  0
  6 14  1  0
 14 15  1  0
 12 16  1  0
 16 17  1  0
 16 18  1  0
 10 19  1  0
 15 19  1  0
 11 20  1  0
 15 21  1  1
 21 22  1  0
 14 23  1  6
 18 23  1  0
M  END
$$$$
49
     RDKit          3D

 23 25  0  0  0  0  0  0  0  0999 V2000
   34.2800   12.5589   23.2846 C   0  0  0  0  0  0  0  0  0  0  0  0
   34.4152   11.3380   23.7858 C   0  0  0  0  0  0  0  0  0  0  0  0
   33.4984   10.4098   23.7437 C   0  0  1  0  0  0  0  0  0  0  0  0
   33.6876    9.0287   24.3144 C   0  0  2  0  0  0  0  0  0  0  0  0
   32.7339    8.2887   24.8895 N   0  0  0  0  0  0  0  0  0  0  0  0
   32.0946   10.6836   23.4931 C   0  0  1  0  0  0  0  0  0  0  0  0
   34.9322    8.3759   24.3812 N   0  0  0  0  0  0  0  0  0  0  0  0
   31.3086    8.6655   24.7277 C   0  0  0  0  0  0  0  0  0  0  0  0
   32.7743    6.9931   25.6519 C   0  0  0  0  0  0  0  0  0  0  0  0
   30.3477    7.9431   25.3038 O   0  0  0  0  0  0  0  0  0  0  0  0
   33.9463    6.9690   26.3220 O   0  0  0  0  0  0  0  0  0  0  0  0
   31.0259    9.8230   23.9466 N   0  0  0  0  0  0  0  0  0  0  0  0
   31.8586   11.9476   22.9704 C   0  0  1  0  0  0  0  0  0  0  0  0
   34.0233    6.2213   27.4559 C   0  0  0  0  0  0  0  0  0  0  0  0
   34.8966    5.4115   27.8451 C   0  0  0  0  0  0  0  0  0  0  0  0
   34.8970    4.6753   28.8813 C   0  0  0  0  0  0  0  0  0  0  0  0
   33.9438    4.7992   29.9189 C   0  0  0  0  0  0  0  0  0  0  0  0
   32.8171   12.9443   22.8479 C   0  0  0  0  0  0  0  0  0  0  0  0
   33.0568    6.3792   28.6949 C   0  0  0  0  0  0  0  0  0  0  0  0
   33.0743    5.6831   29.6927 C   0  0  0  0  0  0  0  0  0  0  0  0
   30.4004   12.4142   22.2648 C   0  0  0  0  0  0  0  0  0  0  0  0
   30.2568   12.4929   21.0294 C   0  0  0  0  0  0  0  0  0  0  0  0
   28.9059   12.9045   20.7002 C   0  0  0  0  0  0  0  0  0  0  0  0
  1  2  1  0
  3  2  1  1
  3  4  1  0
  4  5  1  0
  3  6  1  0
  4  7  1  1
  5  8  1  0
  5  9  1  0
  8 10  2  0
  9 11  1  0
  6 12  1  1
  8 12  1  0
  6 13  1  0
 11 14  1  0
 14 15  1  0
 15 16  1  0
 16 17  1  0
  1 18  1  0
 13 18  1  0
 14 19  1  0
 17 20  1  0
 19 20  1  0
 13 21  1  6
 21 22  1  0
 22 23  1  0
M  END
$$$$
5
     RDKit          3D

 16 17  0  0  0  0  0  0  0  0999 V2000
   29.2737   10.4558   23.8011 C   0  0  1  0  0  0  0  0  0  0  0  0
   30.2888   10.0258   24.5823 C   0  0  2  0  0  0  0  0  0  0  0  0
   30.1677    9.2672   25.7047 O   0  0  0  0  0  0  0  0  0  0  0  0
   31.1220    9.3000   26.8409 C   0  0  0  0  0  0  0  0  0  0  0  0
   30.5822    8.5439   27.9081 C   0  0  0  0  0  0  0  0  0  0  0  0
   30.6037    7.1804   27.6019 O   0  0  0  0  0  0  0  0  0  0  0  0
   31.5734   10.6328   24.2512 C   0  0  1  0  0  0  0  0  0  0  0  0
   27.9766    9.9894   24.2549 O   0  0  0  0  0  0  0  0  0  0  0  0
   32.8063   10.2844   24.9673 O   0  0  0  0  0  0  0  0  0  0  0  0
   31.6377   11.4567   23.1013 C   0  0  1  0  0  0  0  0  0  0  0  0
   29.3657   11.4505   22.8206 C   0  0  0  0  0  0  0  0  0  0  0  0
   30.7311   11.7947   22.5270 C   0  0  1  0  0  0  0  0  0  0  0  0
   33.0414   12.1087   22.7148 C   0  0  0  0  0  0  0  0  0  0  0  0
   31.0852   12.7934   21.3727 C   0  0  2  0  0  0  0  0  0  0  0  0
   30.2843   13.2575   20.5018 O   0  0  0  0  0  0  0  0  0  0  0  0
   32.4449   12.8615   21.4590 C   0  0  0  0  0  0  0  0  0  0  0  0
  1  2  1  0
  2  3  1  1
  3  4  1  0
  4  5  1  0
  5  6  1  0
  2  7  1  0
  1  8  1  1
  7  9  1  6
  7 10  1  0
  1 11  1  0
 10 12  1  0
 12 11  1  1
 10 13  1  1
 12 14  1  0
 14 15  1  6
 13 16  1  0
 14 16  1  0
M  END
$$$$
50
     RDKit          3D

 23 26  0  0  0  0  0  0  0  0999 V2000
   30.6804   12.8394   21.1336 C   0  0  0  0  0  0  0  0  0  0  0  0
   31.8325   12.6790   21.7882 C   0  0  2  0  0  0  0  0  0  0  0  0
   33.0447   13.1452   21.2602 C   0  0  0  0  0  0  0  0  0  0  0  0
   31.8973   11.9038   23.0333 C   0  0  0  0  0  0  0  0  0  0  0  0
   29.4892   12.2818   21.9263 C   0  0  0  0  0  0  0  0  0  0  0  0
   29.5979   11.5327   22.9939 C   0  0  0  0  0  0  0  0  0  0  0  0
   30.8007   11.3796   23.6119 C   0  0  1  0  0  0  0  0  0  0  0  0
   30.7946   10.5767   24.7656 C   0  0  2  0  0  0  0  0  0  0  0  0
   31.9342    9.8381   25.2004 C   0  0  2  0  0  0  0  0  0  0  0  0
   33.2478   11.6854   23.7357 C   0  0  0  0  0  0  0  0  0  0  0  0
   32.0263    9.1243   26.3308 N   0  0  0  0  0  0  0  0  0  0  0  0
   33.2266   10.6021   24.7221 C   0  0  0  0  0  0  0  0  0  0  0  0
   29.6003   10.1190   25.4852 C   0  0  0  0  0  0  0  0  0  0  0  0
   29.7351    9.4034   26.6723 C   0  0  2  0  0  0  0  0  0  0  0  0
   33.2897    8.4627   26.5423 C   0  0  0  0  0  0  0  0  0  0  0  0
   30.9102    8.8061   27.0316 C   0  0  2  0  0  0  0  0  0  0  0  0
   28.6368    9.1190   27.4023 O   0  0  0  0  0  0  0  0  0  0  0  0
   33.1555    7.3760   27.5654 C   0  0  2  0  0  0  0  0  0  0  0  0
   31.0963    8.0305   28.1819 C   0  0  0  0  0  0  0  0  0  0  0  0
   32.1267    7.1439   28.2406 C   0  0  0  0  0  0  0  0  0  0  0  0
   34.4944    6.5896   27.8710 C   0  0  0  0  0  0  0  0  0  0  0  0
   34.7205    6.5328   29.1386 O   0  0  0  0  0  0  0  0  0  0  0  0
   34.9469    6.2646   26.9635 O   0  0  0  0  0  0  0  0  0  0  0  0
  1  2  1  0
  2  3  1  6
  2  4  1  0
  1  5  1  0
  5  6  1  0
  4  7  1  0
  7  6  1  6
  7  8  1  0
  8  9  1  0
  4 10  1  0
  9 11  1  0
  9 12  1  1
 10 12  1  0
  8 13  1  6
 13 14  1  0
 11 15  1  0
 11 16  1  0
 14 16  1  0
 14 17  1  6
 15 18  1  0
 16 19  1  1
 18 20  1  0
 19 20  1  0
 18 21  1  1
 21 22  1  0
 21 23  2  0
M  END
$$$$
51
     RDKit          3D

 23 26  0  0  0  0  0  0  0  0999 V2000
   30.8035   12.5326   21.8481 C   0  0  0  0  0  0  0  0  0  0  0  0
   29.6451   12.1577   22.2016 C   0  0  2  0  0  0  0  0  0  0  0  0
   29.5991   11.4579   23.2392 N   0  0  0  0  0  0  0  0  0  0  0  0
   28.5696   12.3480   21.3214 N   0  0  0  0  0  0  0  0  0  0  0  0
   31.9206   12.1496   22.7770 C   0  0  1  0  0  0  0  0  0  0  0  0
   31.5425   11.5873   23.6689 C   0  0  1  0  0  0  0  0  0  0  0  0
   33.4995   12.3959   22.4394 C   0  0  0  0  0  0  0  0  0  0  0  0
   34.2997   11.6912   23.2575 C   0  0  0  0  0  0  0  0  0  0  0  0
   33.8831   11.0388   24.4544 C   0  0  0  0  0  0  0  0  0  0  0  0
   30.3876   11.1360   24.0503 C   0  0  0  0  0  0  0  0  0  0  0  0
   30.0478   10.4657   25.2093 N   0  0  0  0  0  0  0  0  0  0  0  0
   31.0999   10.1197   26.0408 C   0  0  1  0  0  0  0  0  0  0  0  0
   30.9210    9.2397   27.1008 N   0  0  0  0  0  0  0  0  0  0  0  0
   32.6131   10.7393   24.5333 C   0  0  1  0  0  0  0  0  0  0  0  0
   32.2921   10.0084   25.6502 N   0  0  0  0  0  0  0  0  0  0  0  0
   29.6027    9.2486   27.7868 O   0  0  0  0  0  0  0  0  0  0  0  0
   31.5760    8.2372   27.5021 C   0  0  0  0  0  0  0  0  0  0  0  0
   32.6883    7.7987   26.9282 C   0  0  1  0  0  0  0  0  0  0  0  0
   31.0969    7.5107   28.4033 O   0  0  0  0  0  0  0  0  0  0  0  0
   33.1834    8.9423   25.8770 C   0  0  0  0  0  0  0  0  0  0  0  0
   33.8131    7.3451   27.5876 C   0  0  0  0  0  0  0  0  0  0  0  0
   34.4794    6.1972   27.1108 O   0  0  0  0  0  0  0  0  0  0  0  0
   34.3140    4.9827   27.7899 C   0  0  0  0  0  0  0  0  0  0  0  0
  1  2  1  0
  2  3  1  0
  2  4  1  6
  5  1  1  6
  5  6  1  0
  5  7  1  0
  7  8  1  0
  8  9  1  0
  3 10  1  0
  6 10  1  6
 10 11  1  0
 12 11  1  6
 12 13  1  0
  6 14  1  0
 14  9  1  1
 12 15  1  0
 14 15  1  0
 13 16  1  0
 13 17  1  0
 17 18  1  0
 17 19  2  0
 15 20  1  0
 18 20  1  0
 18 21  1  1
 21 22  1  0
 22 23  1  0
M  END
$$$$
52
     RDKit          3D

 23 25  0  0  0  0  0  0  0  0999 V2000
   30.6804   12.8394   21.1336 C   0  0  0  0  0  0  0  0  0  0  0  0
   31.8325   12.6790   21.7882 C   0  0  0  0  0  0  0  0  0  0  0  0
   29.6845   12.2953   22.0884 C   0  0  0  0  0  0  0  0  0  0  0  0
   29.9509   11.6013   23.2327 C   0  0  2  0  0  0  0  0  0  0  0  0
   31.1187   11.4414   23.4818 C   0  0  1  0  0  0  0  0  0  0  0  0
   32.2019   11.9961   22.8270 C   0  0  0  0  0  0  0  0  0  0  0  0
   31.5811   10.7280   24.8769 C   0  0  0  0  0  0  0  0  0  0  0  0
   28.8541   11.0100   24.0295 N   0  0  0  0  0  0  0  0  0  0  0  0
   29.1688   10.3457   25.0215 C   0  0  2  0  0  0  0  0  0  0  0  0
   33.8691   11.9578   23.1834 Cl  0  0  0  0  0  0  0  0  0  0  0  0
   28.1700    9.8667   25.8556 N   0  0  0  0  0  0  0  0  0  0  0  0
   30.4942   10.1358   25.5070 C   0  0  2  0  0  0  0  0  0  0  0  0
   30.7192    9.3853   26.7824 C   0  0  0  0  0  0  0  0  0  0  0  0
   31.9189    8.7904   27.1045 O   0  0  0  0  0  0  0  0  0  0  0  0
   31.9552    7.4741   27.7517 C   0  0  0  0  0  0  0  0  0  0  0  0
   29.6979    9.0968   27.6352 O   0  0  0  0  0  0  0  0  0  0  0  0
   33.1403    7.0985   28.2090 C   0  0  0  0  0  0  0  0  0  0  0  0
   33.2068    5.9516   29.0840 C   0  0  0  0  0  0  0  0  0  0  0  0
   32.0095    5.4137   29.5718 C   0  0  0  0  0  0  0  0  0  0  0  0
   31.9687    4.3333   30.5765 C   0  0  0  0  0  0  0  0  0  0  0  0
   32.8241    3.3460   30.4610 C   0  0  0  0  0  0  0  0  0  0  0  0
   34.4620    5.3685   29.6639 C   0  0  0  0  0  0  0  0  0  0  0  0
   34.4219    4.1137   30.2080 C   0  0  0  0  0  0  0  0  0  0  0  0
  1  2  1  0
  1  3  1  0
  4  3  1  6
  4  5  1  0
  2  6  1  0
  5  6  1  0
  5  7  1  1
  4  8  1  0
  8  9  1  0
  6 10  1  0
  9 11  1  1
  7 12  1  0
  9 12  1  0
 12 13  1  1
 13 14  1  0
 14 15  1  0
 13 16  2  0
 15 17  1  0
 17 18  1  0
 18 19  1  0
 19 20  1  0
 20 21  1  0
 18 22  1  0
 21 23  1  0
 22 23  1  0
M  END
$$$$
53
     RDKit          3D

 23 26  0  0  0  0  0  0  0  0999 V2000
   30.0228   12.5864   21.7485 C   0  0  0  0  0  0  0  0  0  0  0  0
   31.3032   12.6102   21.9838 C   0  0  2  0  0  0  0  0  0  0  0  0
   32.1983   13.2778   21.2181 C   0  0  0  0  0  0  0  0  0  0  0  0
   29.3852   13.2865   20.7299 N   0  0  0  0  0  0  0  0  0  0  0  0
   29.4601   11.6804   22.7353 N   0  0  0  0  0  0  0  0  0  0  0  0
   30.3171   11.1450   23.5183 C   0  0  1  0  0  0  0  0  0  0  0  0
   33.5384   13.0797   21.7114 C   0  0  0  0  0  0  0  0  0  0  0  0
   31.5880   11.7091   23.0880 C   0  0  2  0  0  0  0  0  0  0  0  0
   30.2474   10.4031   24.7034 C   0  0  0  0  0  0  0  0  0  0  0  0
   32.8650   11.4621   23.7873 C   0  0  0  0  0  0  0  0  0  0  0  0
   33.8769   12.1826   22.9724 C   0  0  0  0  0  0  0  0  0  0  0  0
   29.2278   10.6624   25.6699 N   0  0  0  0  0  0  0  0  0  0  0  0
   31.0820    9.4098   25.0877 N   0  0  0  0  0  0  0  0  0  0  0  0
   32.1521    8.7996   24.4091 C   0  0  0  0  0  0  0  0  0  0  0  0
   32.9351    7.9510   25.2177 C   0  0  2  0  0  0  0  0  0  0  0  0
   29.3715    9.7410   26.6370 N   0  0  0  0  0  0  0  0  0  0  0  0
   30.5527    9.0526   26.3602 C   0  0  0  0  0  0  0  0  0  0  0  0
   34.0698    7.3474   24.6320 C   0  0  0  0  0  0  0  0  0  0  0  0
   32.1077    7.2801   26.2494 C   0  0  0  0  0  0  0  0  0  0  0  0
   34.9353    6.7482   25.4164 O   0  0  0  0  0  0  0  0  0  0  0  0
   34.3801    7.2869   23.3249 O   0  0  0  0  0  0  0  0  0  0  0  0
   31.3050    8.0634   27.1109 C   0  0  2  0  0  0  0  0  0  0  0  0
   30.8177    7.5966   28.2624 O   0  0  0  0  0  0  0  0  0  0  0  0
  1  2  1  0
  2  3  1  6
  1  4  1  0
  1  5  1  0
  5  6  1  0
  3  7  1  0
  2  8  1  0
  6  8  1  0
  6  9  1  1
  8 10  1  1
  7 11  1  0
 10 11  1  0
  9 12  1  0
  9 13  1  0
 13 14  1  0
 14 15  1  0
 12 16  1  0
 13 17  1  0
 16 17  1  0
 15 18  1  6
 15 19  1  0
 18 20  1  0
 18 21  2  0
 17 22  1  0
 19 22  1  0
 22 23  1  6
M  END
$$$$
54
     RDKit          3D

 23 26  0  0  0  0  0  0  0  0999 V2000
   29.2737   10.4558   23.8011 C   0  0  2  0  0  0  0  0  0  0  0  0
   30.2888   10.0258   24.5823 C   0  0  2  0  0  0  0  0  0  0  0  0
   30.1677    9.2672   25.7047 O   0  0  0  0  0  0  0  0  0  0  0  0
   31.1220    9.3000   26.8409 C   0  0  1  0  0  0  0  0  0  0  0  0
   30.5822    8.5439   27.9081 C   0  0  0  0  0  0  0  0  0  0  0  0
   30.6037    7.1804   27.6019 O   0  0  0  0  0  0  0  0  0  0  0  0
   29.3936   11.3233   22.7650 N   0  0  0  0  0  0  0  0  0  0  0  0
   31.6280   10.5275   24.1399 C   0  0  2  0  0  0  0  0  0  0  0  0
   27.9142   10.1098   24.2743 O   0  0  0  0  0  0  0  0  0  0  0  0
   32.8518   10.1349   24.8719 C   0  0  1  0  0  0  0  0  0  0  0  0
   32.3901    9.1523   26.0537 C   0  0  0  0  0  0  0  0  0  0  0  0
   34.1105   10.2299   24.4713 N   0  0  0  0  0  0  0  0  0  0  0  0
   33.3736    8.1560   26.2530 C   0  0  0  0  0  0  0  0  0  0  0  0
   34.3173   11.1755   23.4543 C   0  0  0  0  0  0  0  0  0  0  0  0
   34.1079    7.5857   25.5211 O   0  0  0  0  0  0  0  0  0  0  0  0
   31.9300   11.5029   23.1501 C   0  0  1  0  0  0  0  0  0  0  0  0
   33.3361    7.2470   27.4979 C   0  0  0  0  0  0  0  0  0  0  0  0
   33.2171   11.8257   22.8449 C   0  0  0  0  0  0  0  0  0  0  0  0
   30.6960   11.8211   22.3972 C   0  0  2  0  0  0  0  0  0  0  0  0
   32.0035    6.6556   27.9658 C   0  0  0  0  0  0  0  0  0  0  0  0
   31.9914    5.7534   29.0261 O   0  0  0  0  0  0  0  0  0  0  0  0
   30.7641   12.7898   21.1821 C   0  0  0  0  0  0  0  0  0  0  0  0
   34.5320    7.0836   28.1238 C   0  0  0  0  0  0  0  0  0  0  0  0
  1  2  1  0
  2  3  1  1
  3  4  1  0
  4  5  1  1
  5  6  1  0
  1  7  1  0
  2  8  1  0
  1  9  1  1
  8 10  1  1
  4 11  1  0
 10 11  1  0
 10 12  1  6
 11 13  2  0
 12 14  1  0
 13 15  1  0
  8 16  1  0
 13 17  1  0
 14 18  1  0
 16 18  1  6
  7 19  1  0
 16 19  1  0
  6 20  1  0
 17 20  2  0
 20 21  1  0
 19 22  1  1
 17 23  1  0
M  END
$$$$
55
     RDKit          3D

 23 26  0  0  0  0  0  0  0  0999 V2000
   30.6804   12.8394   21.1336 C   0  0  0  0  0  0  0  0  0  0  0  0
   31.8325   12.6790   21.7882 C   0  0  2  0  0  0  0  0  0  0  0  0
   33.0447   13.1452   21.2602 C   0  0  0  0  0  0  0  0  0  0  0  0
   31.8973   11.9038   23.0333 C   0  0  0  0  0  0  0  0  0  0  0  0
   29.4892   12.2818   21.9263 C   0  0  0  0  0  0  0  0  0  0  0  0
   29.5979   11.5327   22.9939 C   0  0  0  0  0  0  0  0  0  0  0  0
   30.8007   11.3796   23.6119 C   0  0  1  0  0  0  0  0  0  0  0  0
   30.7946   10.5767   24.7656 C   0  0  2  0  0  0  0  0  0  0  0  0
   31.9342    9.8381   25.2004 C   0  0  2  0  0  0  0  0  0  0  0  0
   33.2478   11.6854   23.7357 C   0  0  0  0  0  0  0  0  0  0  0  0
   32.0263    9.1243   26.3308 N   0  0  0  0  0  0  0  0  0  0  0  0
   33.2266   10.6021   24.7221 C   0  0  0  0  0  0  0  0  0  0  0  0
   29.6003   10.1190   25.4852 C   0  0  0  0  0  0  0  0  0  0  0  0
   29.7351    9.4034   26.6723 C   0  0  2  0  0  0  0  0  0  0  0  0
   33.2897    8.4627   26.5423 C   0  0  0  0  0  0  0  0  0  0  0  0
   30.9102    8.8061   27.0316 C   0  0  1  0  0  0  0  0  0  0  0  0
   28.6368    9.1190   27.4023 O   0  0  0  0  0  0  0  0  0  0  0  0
   33.1555    7.3760   27.5654 C   0  0  0  0  0  0  0  0  0  0  0  0
   31.0191    7.7157   27.8300 C   0  0  0  0  0  0  0  0  0  0  0  0
   32.0757    7.0832   28.1764 N   0  0  0  0  0  0  0  0  0  0  0  0
   34.3017    6.5831   27.8656 C   0  0  0  0  0  0  0  0  0  0  0  0
   34.6798    5.5656   27.0483 N   0  0  0  0  0  0  0  0  0  0  0  0
   34.8928    6.6878   29.0481 N   0  0  0  0  0  0  0  0  0  0  0  0
  1  2  1  0
  2  3  1  6
  2  4  1  0
  1  5  1  0
  5  6  1  0
  4  7  1  0
  7  6  1  6
  7  8  1  0
  8  9  1  0
  4 10  1  0
  9 11  1  0
  9 12  1  1
 10 12  1  0
  8 13  1  6
 13 14  1  0
 11 15  1  0
 11 16  1  0
 14 16  1  0
 14 17  1  6
 15 18  1  0
 16 19  1  6
 18 20  1  0
 19 20  1  0
 18 21  1  0
 21 22  1  0
 21 23  2  0
M  END
$$$$
56
     RDKit          3D

 23 27  0  0  0  0  0  0  0  0999 V2000
   30.0228   12.5864   21.7485 C   0  0  1  0  0  0  0  0  0  0  0  0
   31.3032   12.6102   21.9838 C   0  0  0  0  0  0  0  0  0  0  0  0
   29.1866   11.8122   22.6172 N   0  0  0  0  0  0  0  0  0  0  0  0
   29.3055   13.2587   20.8077 N   0  0  0  0  0  0  0  0  0  0  0  0
   31.7920   11.9050   22.9669 C   0  0  1  0  0  0  0  0  0  0  0  0
   29.7558   11.1147   23.6163 C   0  0  1  0  0  0  0  0  0  0  0  0
   31.1122   11.1273   23.8105 C   0  0  0  0  0  0  0  0  0  0  0  0
   28.9019   10.3721   24.5736 N   0  0  0  0  0  0  0  0  0  0  0  0
   33.3419   11.8800   23.1287 C   0  0  0  0  0  0  0  0  0  0  0  0
   31.5018   10.2803   24.9496 C   0  0  1  0  0  0  0  0  0  0  0  0
   29.5175   10.0672   25.7333 C   0  0  0  0  0  0  0  0  0  0  0  0
   30.7496    9.8358   25.8594 C   0  0  0  0  0  0  0  0  0  0  0  0
   33.9000   12.8248   23.8949 C   0  0  0  0  0  0  0  0  0  0  0  0
   31.2200    9.1402   27.0405 C   0  0  2  0  0  0  0  0  0  0  0  0
   32.3737    8.3733   26.9878 N   0  0  0  0  0  0  0  0  0  0  0  0
   33.2712    8.4934   26.0276 C   0  0  1  0  0  0  0  0  0  0  0  0
   30.0854    8.3907   27.6181 O   0  0  0  0  0  0  0  0  0  0  0  0
   32.3759    7.4950   27.9658 C   0  0  0  0  0  0  0  0  0  0  0  0
   34.2299    7.4873   25.8386 C   0  0  0  0  0  0  0  0  0  0  0  0
   32.9945    9.7317   24.9520 C   0  0  0  0  0  0  0  0  0  0  0  0
   33.4313    6.8051   28.3037 C   0  0  0  0  0  0  0  0  0  0  0  0
   31.0592    7.3970   28.5601 C   0  0  0  0  0  0  0  0  0  0  0  0
   34.4007    6.7103   27.1479 C   0  0  0  0  0  0  0  0  0  0  0  0
  1  2  1  0
  1  3  1  0
  1  4  1  1
  2  5  1  0
  6  3  1  1
  5  7  1  0
  6  7  1  0
  6  8  1  0
  5  9  1  6
  7 10  1  0
  8 11  1  0
 10 12  1  0
 11 12  1  0
  9 13  1  0
 12 14  1  0
 14 15  1  0
 15 16  1  0
 14 17  1  6
 15 18  1  0
 16 19  1  6
 10 20  1  6
 16 20  1  0
 18 21  1  0
 17 22  1  0
 18 22  1  0
 19 23  1  0
 21 23  1  0
M  END
$$$$
57
     RDKit          3D

 23 25  0  0  0  0  0  0  0  0999 V2000
   29.2592   12.1480   22.0997 C   0  0  2  0  0  0  0  0  0  0  0  0
   29.6030   11.4340   23.1202 C   0  0  1  0  0  0  0  0  0  0  0  0
   30.9988   11.4509   23.4484 C   0  0  0  0  0  0  0  0  0  0  0  0
   27.8873   12.2810   21.7439 F   0  0  0  0  0  0  0  0  0  0  0  0
   28.8379   10.7066   23.9912 C   0  0  0  0  0  0  0  0  0  0  0  0
   29.4188   10.0733   25.1446 C   0  0  0  0  0  0  0  0  0  0  0  0
   30.7791   10.1382   25.3649 C   0  0  1  0  0  0  0  0  0  0  0  0
   31.6171   10.9167   24.5098 C   0  0  1  0  0  0  0  0  0  0  0  0
   33.0561   10.8624   24.7697 C   0  0  1  0  0  0  0  0  0  0  0  0
   31.2985    9.4809   26.5356 O   0  0  0  0  0  0  0  0  0  0  0  0
   30.0198   12.7132   21.2002 C   0  0  0  0  0  0  0  0  0  0  0  0
   33.7714    9.6614   24.5973 N   0  0  0  0  0  0  0  0  0  0  0  0
   31.9604   12.1303   22.5228 C   0  0  2  0  0  0  0  0  0  0  0  0
   33.7280    8.6830   25.4421 C   0  0  0  0  0  0  0  0  0  0  0  0
   33.3769   12.2006   22.8406 C   0  0  0  0  0  0  0  0  0  0  0  0
   33.7356    7.3364   25.0223 C   0  0  0  0  0  0  0  0  0  0  0  0
   31.4159   12.7504   21.4042 C   0  0  0  0  0  0  0  0  0  0  0  0
   30.4223    8.5959   27.3452 C   0  0  0  0  0  0  0  0  0  0  0  0
   34.1660    6.3411   25.6827 O   0  0  0  0  0  0  0  0  0  0  0  0
   33.6282    8.4240   26.7105 O   0  0  0  0  0  0  0  0  0  0  0  0
   33.8718   11.7243   23.8421 C   0  0  0  0  0  0  0  0  0  0  0  0
   32.5439    6.8940   24.3056 C   0  0  0  0  0  0  0  0  0  0  0  0
   31.5047    7.5714   24.0673 O   0  0  0  0  0  0  0  0  0  0  0  0
  1  2  1  0
  2  3  1  0
  1  4  1  6
  2  5  1  1
  5  6  1  0
  6  7  1  0
  8  3  1  6
  7  8  1  0
  8  9  1  0
  7 10  1  1
  1 11  1  0
  9 12  1  6
  3 13  1  0
 12 14  1  0
 13 15  1  1
 14 16  1  0
 11 17  1  0
 13 17  1  0
 10 18  1  0
 16 19  1  0
 14 20  2  0
  9 21  1  0
 15 21  1  0
 16 22  2  3
 22 23  1  0
M  END
$$$$
58
     RDKit          3D

 23 25  0  0  0  0  0  0  0  0999 V2000
   30.6804   12.8394   21.1336 C   0  0  0  0  0  0  0  0  0  0  0  0
   31.8325   12.6790   21.7882 C   0  0  0  0  0  0  0  0  0  0  0  0
   32.0421   12.0051   22.9915 C   0  0  0  0  0  0  0  0  0  0  0  0
   29.5080   12.3058   21.7956 C   0  0  0  0  0  0  0  0  0  0  0  0
   28.3067   12.4827   21.1951 O   0  0  0  0  0  0  0  0  0  0  0  0
   29.6785   11.5728   23.0289 C   0  0  0  0  0  0  0  0  0  0  0  0
   28.5986   11.0410   23.6541 N   0  0  0  0  0  0  0  0  0  0  0  0
   30.9611   11.4497   23.5887 C   0  0  0  0  0  0  0  0  0  0  0  0
   33.6774   11.9689   23.5887 Cl  0  0  0  0  0  0  0  0  0  0  0  0
   28.7887   10.4851   24.8387 C   0  0  0  0  0  0  0  0  0  0  0  0
   30.0968   10.2841   25.3522 C   0  0  1  0  0  0  0  0  0  0  0  0
   31.0228   10.7016   24.8139 C   0  0  0  0  0  0  0  0  0  0  0  0
   30.1789    9.5121   26.7917 C   0  0  0  0  0  0  0  0  0  0  0  0
   31.0882    8.6733   26.9078 N   0  0  0  0  0  0  0  0  0  0  0  0
   29.1918    9.4914   27.5910 O   0  0  0  0  0  0  0  0  0  0  0  0
   32.2024    8.4844   25.9726 C   0  0  0  0  0  0  0  0  0  0  0  0
   31.2061    7.8578   28.0455 C   0  0  0  0  0  0  0  0  0  0  0  0
   32.5458    7.2704   28.2174 C   0  0  1  0  0  0  0  0  0  0  0  0
   32.8125    6.2142   28.9562 C   0  0  0  0  0  0  0  0  0  0  0  0
   32.9437    7.2287   26.7361 C   0  0  0  0  0  0  0  0  0  0  0  0
   34.0112    6.0800   29.5179 C   0  0  0  0  0  0  0  0  0  0  0  0
   35.0324    6.7563   29.0563 O   0  0  0  0  0  0  0  0  0  0  0  0
   34.2601    5.2182   30.6614 O   0  0  0  0  0  0  0  0  0  0  0  0
  1  2  1  0
  2  3  1  0
  1  4  1  0
  4  5  1  0
  4  6  1  0
  6  7  1  0
  3  8  1  0
  6  8  1  0
  3  9  1  0
  7 10  1  0
 10 11  1  0
  8 12  1  0
 11 12  1  0
 11 13  1  1
 13 14  1  0
 13 15  2  0
 14 16  1  0
 14 17  1  0
 17 18  1  0
 18 19  1  6
 16 20  1  0
 18 20  1  0
 19 21  1  0
 21 22  1  0
 21 23  2  0
M  END
$$$$
59
     RDKit          3D

 24 26  0  0  0  0  0  0  0  0999 V2000
   30.0228   12.5864   21.7485 C   0  0  0  0  0  0  0  0  0  0  0  0
   31.3032   12.6102   21.9838 C   0  0  2  0  0  0  0  0  0  0  0  0
   32.1983   13.2778   21.2181 C   0  0  0  0  0  0  0  0  0  0  0  0
   29.3852   13.2865   20.7299 N   0  0  0  0  0  0  0  0  0  0  0  0
   29.4601   11.6804   22.7353 N   0  0  0  0  0  0  0  0  0  0  0  0
   30.3171   11.1450   23.5183 C   0  0  1  0  0  0  0  0  0  0  0  0
   31.6067   11.7514   23.1229 C   0  0  2  0  0  0  0  0  0  0  0  0
   30.2971   10.3350   24.6534 C   0  0  1  0  0  0  0  0  0  0  0  0
   32.9142   11.6354   23.8681 C   0  0  0  0  0  0  0  0  0  0  0  0
   31.5242    9.9024   25.2399 C   0  0  2  0  0  0  0  0  0  0  0  0
   29.0821   10.4793   25.3301 C   0  0  0  0  0  0  0  0  0  0  0  0
   31.3689    8.9865   26.3303 C   0  0  1  0  0  0  0  0  0  0  0  0
   29.0221    9.6458   26.5654 C   0  0  0  0  0  0  0  0  0  0  0  0
   32.7522   10.7202   25.0442 C   0  0  0  0  0  0  0  0  0  0  0  0
   32.4725    8.2891   26.8110 O   0  0  0  0  0  0  0  0  0  0  0  0
   27.8556    9.5342   27.2850 O   0  0  0  0  0  0  0  0  0  0  0  0
   30.1456    8.9162   27.0074 C   0  0  0  0  0  0  0  0  0  0  0  0
   33.2539    7.5673   25.9701 C   0  0  0  0  0  0  0  0  0  0  0  0
   30.0673    8.0125   28.1615 O   0  0  0  0  0  0  0  0  0  0  0  0
   34.3634    6.9555   26.7096 C   0  0  0  0  0  0  0  0  0  0  0  0
   33.2663    7.4216   24.6489 O   0  0  0  0  0  0  0  0  0  0  0  0
   34.1153    7.0689   28.1402 C   0  0  0  0  0  0  0  0  0  0  0  0
   34.4651    5.7905   28.8666 C   0  0  0  0  0  0  0  0  0  0  0  0
   33.9856    4.6903   28.3437 O   0  0  0  0  0  0  0  0  0  0  0  0
  1  2  1  0
  2  3  1  6
  1  4  1  0
  1  5  1  0
  6  5  1  1
  2  7  1  0
  6  7  1  0
  6  8  1  0
  7  9  1  1
  8 10  1  0
  8 11  1  1
 10 12  1  0
 11 13  1  0
  9 14  1  0
 10 14  1  1
 12 15  1  1
 13 16  1  0
 12 17  1  0
 13 17  1  0
 15 18  1  0
 17 19  1  0
 18 20  1  0
 18 21  2  0
 20 22  1  0
 22 23  1  0
 23 24  1  0
M  END
$$$$
6
     RDKit          3D

 16 18  0  0  0  0  0  0  0  0999 V2000
   30.6804   12.8394   21.1336 C   0  0  0  0  0  0  0  0  0  0  0  0
   31.8325   12.6790   21.7882 C   0  0  0  0  0  0  0  0  0  0  0  0
   29.6845   12.2953   22.0884 C   0  0  0  0  0  0  0  0  0  0  0  0
   29.9509   11.6013   23.2327 C   0  0  2  0  0  0  0  0  0  0  0  0
   31.1187   11.4414   23.4818 C   0  0  1  0  0  0  0  0  0  0  0  0
   32.2019   11.9961   22.8270 C   0  0  0  0  0  0  0  0  0  0  0  0
   31.5811   10.7280   24.8769 C   0  0  0  0  0  0  0  0  0  0  0  0
   28.8541   11.0100   24.0295 N   0  0  0  0  0  0  0  0  0  0  0  0
   29.1688   10.3457   25.0215 C   0  0  2  0  0  0  0  0  0  0  0  0
   33.8691   11.9578   23.1834 Cl  0  0  0  0  0  0  0  0  0  0  0  0
   28.1700    9.8667   25.8556 N   0  0  0  0  0  0  0  0  0  0  0  0
   30.4942   10.1358   25.5070 C   0  0  0  0  0  0  0  0  0  0  0  0
   30.8582    9.2630   26.7331 C   0  0  0  0  0  0  0  0  0  0  0  0
   29.6794    8.9801   27.5341 N   0  0  0  0  0  0  0  0  0  0  0  0
   28.4128    9.2588   27.0795 C   0  0  0  0  0  0  0  0  0  0  0  0
   31.9552    8.8814   27.0147 O   0  0  0  0  0  0  0  0  0  0  0  0
  1  2  1  0
  1  3  1  0
  4  3  1  6
  4  5  1  0
  2  6  1  0
  5  6  1  0
  5  7  1  1
  4  8  1  0
  9  8  1  1
  6 10  1  0
  9 11  1  0
  7 12  1  0
  9 12  1  0
 12 13  1  0
 13 14  1  0
 11 15  1  0
 14 15  1  0
 13 16  2  0
M  END
$$$$
60
     RDKit          3D

 24 26  0  0  0  0  0  0  0  0999 V2000
   29.2592   12.1480   22.0997 C   0  0  2  0  0  0  0  0  0  0  0  0
   29.6030   11.4340   23.1202 C   0  0  1  0  0  0  0  0  0  0  0  0
   30.9988   11.4509   23.4484 C   0  0  0  0  0  0  0  0  0  0  0  0
   27.8873   12.2810   21.7439 F   0  0  0  0  0  0  0  0  0  0  0  0
   28.8379   10.7066   23.9912 C   0  0  0  0  0  0  0  0  0  0  0  0
   29.4188   10.0733   25.1446 C   0  0  0  0  0  0  0  0  0  0  0  0
   30.7791   10.1382   25.3649 C   0  0  1  0  0  0  0  0  0  0  0  0
   31.6171   10.9167   24.5098 C   0  0  1  0  0  0  0  0  0  0  0  0
   33.0561   10.8624   24.7697 C   0  0  0  0  0  0  0  0  0  0  0  0
   31.2985    9.4809   26.5356 O   0  0  0  0  0  0  0  0  0  0  0  0
   30.0198   12.7132   21.2002 C   0  0  0  0  0  0  0  0  0  0  0  0
   33.7714    9.6614   24.5973 N   0  0  0  0  0  0  0  0  0  0  0  0
   31.9604   12.1303   22.5228 C   0  0  0  0  0  0  0  0  0  0  0  0
   33.7280    8.6830   25.4421 C   0  0  0  0  0  0  0  0  0  0  0  0
   34.3303    7.4592   25.2560 C   0  0  1  0  0  0  0  0  0  0  0  0
   30.8804    8.1424   26.8248 C   0  0  0  0  0  0  0  0  0  0  0  0
   34.2444    9.4789   23.2444 C   0  0  0  0  0  0  0  0  0  0  0  0
   31.4509   12.7036   21.4113 C   0  0  0  0  0  0  0  0  0  0  0  0
   30.7476    7.8761   28.1505 C   0  0  0  0  0  0  0  0  0  0  0  0
   34.5210   10.4778   22.5235 O   0  0  0  0  0  0  0  0  0  0  0  0
   34.1059    6.4252   26.1710 O   0  0  0  0  0  0  0  0  0  0  0  0
   31.4186    6.7326   28.5708 O   0  0  0  0  0  0  0  0  0  0  0  0
   33.7183    6.8788   23.8389 C   0  0  0  0  0  0  0  0  0  0  0  0
   34.3013    8.0387   22.8286 C   0  0  0  0  0  0  0  0  0  0  0  0
  1  2  1  0
  2  3  1  0
  1  4  1  6
  2  5  1  1
  5  6  1  0
  6  7  1  0
  3  8  1  0
  7  8  1  0
  8  9  1  6
  7 10  1  1
  1 11  1  0
  9 12  1  0
  3 13  1  0
 12 14  1  0
 14 15  1  0
 10 16  1  0
 12 17  1  0
 11 18  1  0
 13 18  1  0
 16 19  1  0
 17 20  2  0
 15 21  1  1
 19 22  1  0
 15 23  1  0
 17 24  1  0
 23 24  1  0
M  END
$$$$
61
     RDKit          3D

 24 27  0  0  0  0  0  0  0  0999 V2000
   30.0228   12.5864   21.7485 C   0  0  0  0  0  0  0  0  0  0  0  0
   31.3032   12.6102   21.9838 C   0  0  2  0  0  0  0  0  0  0  0  0
   32.1983   13.2778   21.2181 C   0  0  0  0  0  0  0  0  0  0  0  0
   29.3852   13.2865   20.7299 N   0  0  0  0  0  0  0  0  0  0  0  0
   29.4601   11.6804   22.7353 N   0  0  0  0  0  0  0  0  0  0  0  0
   30.3171   11.1450   23.5183 C   0  0  1  0  0  0  0  0  0  0  0  0
   33.5384   13.0797   21.7114 C   0  0  0  0  0  0  0  0  0  0  0  0
   31.5880   11.7091   23.0880 C   0  0  2  0  0  0  0  0  0  0  0  0
   30.2474   10.4031   24.7034 C   0  0  0  0  0  0  0  0  0  0  0  0
   32.8650   11.4621   23.7873 C   0  0  0  0  0  0  0  0  0  0  0  0
   33.8769   12.1826   22.9724 C   0  0  0  0  0  0  0  0  0  0  0  0
   29.2278   10.6624   25.6699 N   0  0  0  0  0  0  0  0  0  0  0  0
   31.0820    9.4098   25.0877 N   0  0  0  0  0  0  0  0  0  0  0  0
   32.1521    8.7996   24.4091 C   0  0  0  0  0  0  0  0  0  0  0  0
   32.9351    7.9510   25.2177 C   0  0  0  0  0  0  0  0  0  0  0  0
   29.3715    9.7410   26.6370 C   0  0  0  0  0  0  0  0  0  0  0  0
   30.5533    9.0560   26.3106 N   0  0  0  0  0  0  0  0  0  0  0  0
   28.8213    9.5881   27.8093 O   0  0  0  0  0  0  0  0  0  0  0  0
   31.3062    8.0110   27.1314 C   0  0  2  0  0  0  0  0  0  0  0  0
   32.6972    7.9283   26.6597 C   0  0  1  0  0  0  0  0  0  0  0  0
   30.5818    6.9421   27.3118 O   0  0  0  0  0  0  0  0  0  0  0  0
   33.5911    7.3748   27.4660 C   0  0  0  0  0  0  0  0  0  0  0  0
   34.8284    6.8864   26.8621 O   0  0  0  0  0  0  0  0  0  0  0  0
   33.6659    7.1868   28.7107 O   0  0  0  0  0  0  0  0  0  0  0  0
  1  2  1  0
  2  3  1  6
  1  4  1  0
  1  5  1  0
  5  6  1  0
  3  7  1  0
  2  8  1  0
  6  8  1  0
  6  9  1  1
  8 10  1  1
  7 11  1  0
 10 11  1  0
  9 12  1  0
  9 13  1  0
 13 14  1  0
 14 15  1  0
 12 16  1  0
 13 17  1  0
 16 17  1  0
 16 18  2  0
 17 19  1  0
 15 20  1  0
 19 20  1  0
 19 21  1  6
 20 22  1  6
 22 23  2  0
 22 24  1  0
M  END
$$$$
62
     RDKit          3D

 24 27  0  0  0  0  0  0  0  0999 V2000
   30.6804   12.8394   21.1336 C   0  0  0  0  0  0  0  0  0  0  0  0
   31.8325   12.6790   21.7882 C   0  0  2  0  0  0  0  0  0  0  0  0
   33.0447   13.1452   21.2602 C   0  0  0  0  0  0  0  0  0  0  0  0
   31.8973   11.9038   23.0333 C   0  0  0  0  0  0  0  0  0  0  0  0
   29.4892   12.2818   21.9263 C   0  0  0  0  0  0  0  0  0  0  0  0
   29.5979   11.5327   22.9939 C   0  0  0  0  0  0  0  0  0  0  0  0
   30.8007   11.3796   23.6119 C   0  0  1  0  0  0  0  0  0  0  0  0
   30.7946   10.5767   24.7656 C   0  0  2  0  0  0  0  0  0  0  0  0
   31.9342    9.8381   25.2004 C   0  0  2  0  0  0  0  0  0  0  0  0
   33.2478   11.6854   23.7357 C   0  0  0  0  0  0  0  0  0  0  0  0
   32.0263    9.1243   26.3308 N   0  0  0  0  0  0  0  0  0  0  0  0
   33.2266   10.6021   24.7221 C   0  0  0  0  0  0  0  0  0  0  0  0
   29.6003   10.1190   25.4852 C   0  0  0  0  0  0  0  0  0  0  0  0
   29.7351    9.4034   26.6723 C   0  0  2  0  0  0  0  0  0  0  0  0
   33.2897    8.4627   26.5423 C   0  0  0  0  0  0  0  0  0  0  0  0
   30.9102    8.8061   27.0316 C   0  0  1  0  0  0  0  0  0  0  0  0
   28.6368    9.1190   27.4023 O   0  0  0  0  0  0  0  0  0  0  0  0
   33.1555    7.3760   27.5654 C   0  0  2  0  0  0  0  0  0  0  0  0
   31.0191    7.7157   27.8300 C   0  0  0  0  0  0  0  0  0  0  0  0
   32.0757    7.0832   28.1764 N   0  0  0  0  0  0  0  0  0  0  0  0
   34.3790    6.7375   27.9196 N   0  0  0  0  0  0  0  0  0  0  0  0
   34.6339    5.5146   27.5317 C   0  0  0  0  0  0  0  0  0  0  0  0
   35.4634    4.7390   28.4106 C   0  0  0  0  0  0  0  0  0  0  0  0
   34.1254    5.0547   26.4596 O   0  0  0  0  0  0  0  0  0  0  0  0
  1  2  1  0
  2  3  1  6
  2  4  1  0
  1  5  1  0
  5  6  1  0
  4  7  1  0
  7  6  1  6
  7  8  1  0
  8  9  1  0
  4 10  1  0
  9 11  1  0
  9 12  1  1
 10 12  1  0
  8 13  1  6
 13 14  1  0
 11 15  1  0
 11 16  1  0
 14 16  1  0
 14 17  1  6
 15 18  1  0
 16 19  1  6
 18 20  1  0
 19 20  1  0
 18 21  1  1
 21 22  1  0
 22 23  1  0
 22 24  2  0
M  END
$$$$
63
     RDKit          3D

 24 26  0  0  0  0  0  0  0  0999 V2000
   29.2592   12.1480   22.0997 C   0  0  0  0  0  0  0  0  0  0  0  0
   29.6030   11.4340   23.1202 N   0  0  0  0  0  0  0  0  0  0  0  0
   30.1466   12.8003   21.2957 C   0  0  0  0  0  0  0  0  0  0  0  0
   30.9133   11.3828   23.4912 C   0  0  1  0  0  0  0  0  0  0  0  0
   31.3706   10.6492   24.6187 N   0  0  0  0  0  0  0  0  0  0  0  0
   31.8974   12.0160   22.6900 C   0  0  0  0  0  0  0  0  0  0  0  0
   31.4897   12.7545   21.5715 C   0  0  0  0  0  0  0  0  0  0  0  0
   33.1952   11.6697   23.2709 C   0  0  1  0  0  0  0  0  0  0  0  0
   34.4293   12.0810   22.8999 O   0  0  0  0  0  0  0  0  0  0  0  0
   32.8225   10.8518   24.4693 C   0  0  0  0  0  0  0  0  0  0  0  0
   30.6611   10.2366   25.6713 C   0  0  0  0  0  0  0  0  0  0  0  0
   35.4410   11.3691   23.5932 C   0  0  0  0  0  0  0  0  0  0  0  0
   31.0490    9.0346   26.2460 C   0  0  0  0  0  0  0  0  0  0  0  0
   29.3551   10.5784   25.6963 O   0  0  0  0  0  0  0  0  0  0  0  0
   32.1162    8.2201   25.8543 C   0  0  2  0  0  0  0  0  0  0  0  0
   32.5038    8.0282   24.6066 O   0  0  0  0  0  0  0  0  0  0  0  0
   33.1193    6.8546   24.2234 C   0  0  2  0  0  0  0  0  0  0  0  0
   32.4226    7.0318   26.6704 O   0  0  0  0  0  0  0  0  0  0  0  0
   33.7171    6.6150   26.9751 C   0  0  0  0  0  0  0  0  0  0  0  0
   34.1696    6.4672   25.3575 C   0  0  2  0  0  0  0  0  0  0  0  0
   34.2863    6.3640   27.8837 O   0  0  0  0  0  0  0  0  0  0  0  0
   30.4770    8.6295   27.4743 C   0  0  0  0  0  0  0  0  0  0  0  0
   35.3856    7.2334   25.5118 N   0  0  0  0  0  0  0  0  0  0  0  0
   33.1522    6.3402   23.0385 C   0  0  0  0  0  0  0  0  0  0  0  0
  1  2  1  0
  1  3  1  0
  4  2  1  6
  4  5  1  0
  4  6  1  0
  3  7  1  0
  6  7  1  0
  6  8  1  0
  8  9  1  1
  5 10  1  0
  8 10  1  0
  5 11  1  0
  9 12  1  0
 11 13  1  0
 11 14  2  0
 15 13  1  6
 15 16  1  0
 16 17  1  0
 15 18  1  0
 18 19  1  0
 17 20  1  0
 19 20  1  0
 19 21  2  0
 13 22  2  0
 20 23  1  1
 17 24  1  6
M  END
$$$$
64
     RDKit          3D

 24 27  0  0  0  0  0  0  0  0999 V2000
   30.6804   12.8394   21.1336 C   0  0  0  0  0  0  0  0  0  0  0  0
   31.8325   12.6790   21.7882 C   0  0  2  0  0  0  0  0  0  0  0  0
   33.0447   13.1452   21.2602 C   0  0  0  0  0  0  0  0  0  0  0  0
   31.8973   11.9038   23.0333 C   0  0  0  0  0  0  0  0  0  0  0  0
   29.4892   12.2818   21.9263 C   0  0  0  0  0  0  0  0  0  0  0  0
   29.5979   11.5327   22.9939 C   0  0  0  0  0  0  0  0  0  0  0  0
   30.8007   11.3796   23.6119 C   0  0  1  0  0  0  0  0  0  0  0  0
   30.7946   10.5767   24.7656 C   0  0  2  0  0  0  0  0  0  0  0  0
   31.9342    9.8381   25.2004 C   0  0  2  0  0  0  0  0  0  0  0  0
   33.2478   11.6854   23.7357 C   0  0  0  0  0  0  0  0  0  0  0  0
   32.0263    9.1243   26.3308 N   0  0  0  0  0  0  0  0  0  0  0  0
   33.2266   10.6021   24.7221 C   0  0  0  0  0  0  0  0  0  0  0  0
   29.6003   10.1190   25.4852 C   0  0  0  0  0  0  0  0  0  0  0  0
   29.7351    9.4034   26.6723 C   0  0  2  0  0  0  0  0  0  0  0  0
   33.2897    8.4627   26.5423 C   0  0  0  0  0  0  0  0  0  0  0  0
   30.9102    8.8061   27.0316 C   0  0  0  0  0  0  0  0  0  0  0  0
   28.6368    9.1190   27.4023 O   0  0  0  0  0  0  0  0  0  0  0  0
   33.1555    7.3760   27.5654 C   0  0  2  0  0  0  0  0  0  0  0  0
   30.9661    7.9513   28.0686 C   0  0  0  0  0  0  0  0  0  0  0  0
   32.0663    7.1152   28.2034 N   0  0  0  0  0  0  0  0  0  0  0  0
   34.3068    6.6636   27.8737 N   0  0  0  0  0  0  0  0  0  0  0  0
   34.6065    6.3431   29.1158 C   0  0  0  0  0  0  0  0  0  0  0  0
   34.6826    4.9372   29.3885 C   0  0  0  0  0  0  0  0  0  0  0  0
   33.5683    4.3052   29.5831 O   0  0  0  0  0  0  0  0  0  0  0  0
  1  2  1  0
  2  3  1  6
  2  4  1  0
  1  5  1  0
  5  6  1  0
  4  7  1  0
  7  6  1  6
  7  8  1  0
  8  9  1  0
  4 10  1  0
  9 11  1  0
  9 12  1  1
 10 12  1  0
  8 13  1  6
 13 14  1  0
 11 15  1  0
 11 16  1  0
 14 16  1  0
 14 17  1  6
 15 18  1  0
 16 19  1  0
 18 20  1  0
 19 20  1  0
 18 21  1  1
 21 22  1  0
 22 23  1  0
 23 24  1  0
M  END
$$$$
65
     RDKit          3D

 24 26  0  0  0  0  0  0  0  0999 V2000
   29.2001   11.3146   22.8705 N   0  0  0  0  0  0  0  0  0  0  0  0
   29.9424   10.9423   23.7039 C   0  0  1  0  0  0  0  0  0  0  0  0
   29.7441   12.1289   21.8180 C   0  0  2  0  0  0  0  0  0  0  0  0
   28.9433   12.5414   20.8082 N   0  0  0  0  0  0  0  0  0  0  0  0
   31.3100   11.2705   23.7908 C   0  0  2  0  0  0  0  0  0  0  0  0
   29.3387   10.1434   24.8966 C   0  0  0  0  0  0  0  0  0  0  0  0
   31.1612   12.4471   21.7890 C   0  0  0  0  0  0  0  0  0  0  0  0
   31.9188   12.0532   22.8024 C   0  0  2  0  0  0  0  0  0  0  0  0
   31.9020   10.6489   24.8647 N   0  0  0  0  0  0  0  0  0  0  0  0
   30.6810    9.9922   25.6878 C   0  0  1  0  0  0  0  0  0  0  0  0
   33.5093   12.4288   22.7090 C   0  0  0  0  0  0  0  0  0  0  0  0
   34.2697   11.3357   22.7123 O   0  0  0  0  0  0  0  0  0  0  0  0
   30.6783    9.4653   26.9169 C   0  0  0  0  0  0  0  0  0  0  0  0
   35.4345   11.3109   23.6434 C   0  0  0  0  0  0  0  0  0  0  0  0
   31.3739    8.2615   27.1663 N   0  0  0  0  0  0  0  0  0  0  0  0
   29.8369    9.8490   27.7734 O   0  0  0  0  0  0  0  0  0  0  0  0
   31.3426    7.5182   28.3361 C   0  0  0  0  0  0  0  0  0  0  0  0
   32.7384    8.1442   26.6292 C   0  0  0  0  0  0  0  0  0  0  0  0
   32.2735    6.4782   28.3772 C   0  0  1  0  0  0  0  0  0  0  0  0
   32.9955    8.0343   25.3777 O   0  0  0  0  0  0  0  0  0  0  0  0
   33.5662    7.3268   27.5465 C   0  0  0  0  0  0  0  0  0  0  0  0
   32.7640    5.9950   29.6953 C   0  0  0  0  0  0  0  0  0  0  0  0
   33.9614    6.1273   30.0093 O   0  0  0  0  0  0  0  0  0  0  0  0
   31.9546    5.3479   30.4521 O   0  0  0  0  0  0  0  0  0  0  0  0
  1  2  1  0
  1  3  1  0
  3  4  1  6
  2  5  1  0
  2  6  1  1
  3  7  1  0
  5  8  1  0
  7  8  1  0
  5  9  1  6
  6 10  1  0
  9 10  1  0
  8 11  1  6
 11 12  1  0
 10 13  1  1
 12 14  1  0
 13 15  1  0
 13 16  2  0
 15 17  1  0
 15 18  1  0
 17 19  1  0
 18 20  2  0
 18 21  1  0
 19 21  1  0
 19 22  1  1
 22 23  1  0
 22 24  2  0
M  END
$$$$
66
     RDKit          3D

 24 27  0  0  0  0  0  0  0  0999 V2000
   30.6804   12.8394   21.1336 C   0  0  0  0  0  0  0  0  0  0  0  0
   31.8325   12.6790   21.7882 C   0  0  2  0  0  0  0  0  0  0  0  0
   33.0447   13.1452   21.2602 C   0  0  0  0  0  0  0  0  0  0  0  0
   31.8973   11.9038   23.0333 C   0  0  0  0  0  0  0  0  0  0  0  0
   29.4892   12.2818   21.9263 C   0  0  0  0  0  0  0  0  0  0  0  0
   29.5979   11.5327   22.9939 C   0  0  0  0  0  0  0  0  0  0  0  0
   30.8007   11.3796   23.6119 C   0  0  1  0  0  0  0  0  0  0  0  0
   30.7946   10.5767   24.7656 C   0  0  2  0  0  0  0  0  0  0  0  0
   31.9342    9.8381   25.2004 C   0  0  2  0  0  0  0  0  0  0  0  0
   33.2478   11.6854   23.7357 C   0  0  0  0  0  0  0  0  0  0  0  0
   32.0263    9.1243   26.3308 N   0  0  0  0  0  0  0  0  0  0  0  0
   33.2266   10.6021   24.7221 C   0  0  0  0  0  0  0  0  0  0  0  0
   29.6003   10.1190   25.4852 C   0  0  0  0  0  0  0  0  0  0  0  0
   29.7351    9.4034   26.6723 C   0  0  2  0  0  0  0  0  0  0  0  0
   33.2897    8.4627   26.5423 C   0  0  0  0  0  0  0  0  0  0  0  0
   30.9102    8.8061   27.0316 C   0  0  1  0  0  0  0  0  0  0  0  0
   28.6368    9.1190   27.4023 O   0  0  0  0  0  0  0  0  0  0  0  0
   33.1555    7.3760   27.5654 C   0  0  2  0  0  0  0  0  0  0  0  0
   31.0191    7.7157   27.8300 C   0  0  0  0  0  0  0  0  0  0  0  0
   32.0757    7.0832   28.1764 N   0  0  0  0  0  0  0  0  0  0  0  0
   34.3790    6.7375   27.9196 N   0  0  0  0  0  0  0  0  0  0  0  0
   34.6339    5.5146   27.5317 C   0  0  0  0  0  0  0  0  0  0  0  0
   34.2794    4.9816   26.5067 O   0  0  0  0  0  0  0  0  0  0  0  0
   35.6940    4.8253   28.3165 N   0  0  0  0  0  0  0  0  0  0  0  0
  1  2  1  0
  2  3  1  6
  2  4  1  0
  1  5  1  0
  5  6  1  0
  4  7  1  0
  7  6  1  6
  7  8  1  0
  8  9  1  0
  4 10  1  0
  9 11  1  0
  9 12  1  1
 10 12  1  0
  8 13  1  6
 13 14  1  0
 11 15  1  0
 11 16  1  0
 14 16  1  0
 14 17  1  6
 15 18  1  0
 16 19  1  6
 18 20  1  0
 19 20  1  0
 18 21  1  1
 21 22  1  0
 22 23  2  0
 22 24  1  0
M  END
$$$$
67
     RDKit          3D

 24 26  0  0  0  0  0  0  0  0999 V2000
   29.3919   11.6711   22.3202 N   0  0  0  0  0  0  0  0  0  0  0  0
   29.9093   11.2007   23.3313 C   0  0  1  0  0  0  0  0  0  0  0  0
   30.0583   12.6248   21.5079 C   0  0  2  0  0  0  0  0  0  0  0  0
   29.4621   13.1455   20.4256 N   0  0  0  0  0  0  0  0  0  0  0  0
   31.4026   12.8235   21.8529 N   0  0  0  0  0  0  0  0  0  0  0  0
   31.9306   12.1757   22.8797 C   0  0  2  0  0  0  0  0  0  0  0  0
   29.3031   10.3172   24.1633 N   0  0  0  0  0  0  0  0  0  0  0  0
   31.2992   11.4246   23.6615 C   0  0  0  0  0  0  0  0  0  0  0  0
   31.6391   10.7436   24.8413 C   0  0  0  0  0  0  0  0  0  0  0  0
   33.4142   12.6760   22.9923 C   0  0  0  0  0  0  0  0  0  0  0  0
   34.2314   11.8664   23.6403 C   0  0  0  0  0  0  0  0  0  0  0  0
   34.8308   10.7354   22.8479 O   0  0  0  0  0  0  0  0  0  0  0  0
   30.3614   10.0657   25.1633 C   0  0  0  0  0  0  0  0  0  0  0  0
   35.3014    9.7379   23.3576 C   0  0  0  0  0  0  0  0  0  0  0  0
   30.2281    9.2268   26.3875 C   0  0  0  0  0  0  0  0  0  0  0  0
   34.5046    8.6179   23.2871 C   0  0  0  0  0  0  0  0  0  0  0  0
   34.8800    7.4420   23.9780 C   0  0  0  0  0  0  0  0  0  0  0  0
   34.1683    6.7716   24.7197 C   0  0  2  0  0  0  0  0  0  0  0  0
   29.2536    9.4040   27.1188 O   0  0  0  0  0  0  0  0  0  0  0  0
   31.0365    8.3061   26.6460 N   0  0  0  0  0  0  0  0  0  0  0  0
   32.1270    7.7818   25.8595 C   0  0  0  0  0  0  0  0  0  0  0  0
   30.9260    7.5372   27.8740 C   0  0  0  0  0  0  0  0  0  0  0  0
   33.3111    7.5025   25.8615 C   0  0  0  0  0  0  0  0  0  0  0  0
   34.8381    5.6832   25.4433 O   0  0  0  0  0  0  0  0  0  0  0  0
  2  1  1  6
  1  3  1  0
  3  4  1  6
  3  5  1  0
  5  6  1  0
  2  7  1  0
  2  8  1  0
  6  8  1  0
  8  9  1  0
  6 10  1  1
 10 11  1  0
 11 12  1  0
  7 13  1  0
  9 13  1  0
 12 14  1  0
 13 15  1  0
 14 16  1  0
 16 17  1  0
 17 18  1  0
 15 19  2  0
 15 20  1  0
 20 21  1  0
 20 22  1  0
 18 23  1  0
 21 23  1  0
 18 24  1  1
M  END
$$$$
68
     RDKit          3D

 24 28  0  0  0  0  0  0  0  0999 V2000
   30.5414    8.7410   28.0699 C   0  0  0  0  0  0  0  0  0  0  0  0
   30.1417    9.6363   27.2235 N   0  0  0  0  0  0  0  0  0  0  0  0
   30.7039    9.7158   25.9564 C   0  0  0  0  0  0  0  0  0  0  0  0
   30.2794   10.6967   25.0596 C   0  0  1  0  0  0  0  0  0  0  0  0
   31.5027    7.8655   27.7519 C   0  0  2  0  0  0  0  0  0  0  0  0
   30.9196   10.9727   23.8354 C   0  0  1  0  0  0  0  0  0  0  0  0
   32.0903    7.8568   26.4842 C   0  0  1  0  0  0  0  0  0  0  0  0
   29.0556   11.3111   25.1768 N   0  0  0  0  0  0  0  0  0  0  0  0
   28.4838   11.6292   24.1588 N   0  0  0  0  0  0  0  0  0  0  0  0
   31.6950    8.8018   25.5256 C   0  0  2  0  0  0  0  0  0  0  0  0
   31.8412    6.8553   28.7636 C   0  0  0  0  0  0  0  0  0  0  0  0
   29.5581   11.6800   23.1826 C   0  0  1  0  0  0  0  0  0  0  0  0
   31.9680    5.6350   28.5464 O   0  0  0  0  0  0  0  0  0  0  0  0
   32.1298   10.9929   23.3016 C   0  0  1  0  0  0  0  0  0  0  0  0
   33.1756   10.3332   23.8399 C   0  0  1  0  0  0  0  0  0  0  0  0
   29.9414   12.1934   21.8622 C   0  0  0  0  0  0  0  0  0  0  0  0
   28.9055   12.7889   21.1589 N   0  0  0  0  0  0  0  0  0  0  0  0
   31.2823   12.1343   21.3550 C   0  0  0  0  0  0  0  0  0  0  0  0
   32.9215    9.0567   24.6871 C   0  0  1  0  0  0  0  0  0  0  0  0
   32.2328    7.2924   29.9612 O   0  0  0  0  0  0  0  0  0  0  0  0
   34.3674   10.3340   23.3094 O   0  0  0  0  0  0  0  0  0  0  0  0
   33.9072    8.2009   25.0614 N   0  0  0  0  0  0  0  0  0  0  0  0
   33.4901    7.5501   26.0546 C   0  0  0  0  0  0  0  0  0  0  0  0
   32.3364   11.6120   22.0602 C   0  0  0  0  0  0  0  0  0  0  0  0
  1  2  1  0
  2  3  1  0
  3  4  1  0
  1  5  1  0
  6  4  1  1
  5  7  1  0
  4  8  1  6
  8  9  1  0
 10  3  1  1
  7 10  1  0
  5 11  1  6
  6 12  1  0
 12  9  1  1
 11 13  2  0
  6 14  1  0
 14 15  1  0
 12 16  1  0
 16 17  1  0
 16 18  1  0
 10 19  1  0
 15 19  1  0
 11 20  1  0
 15 21  1  6
 19 22  1  1
  7 23  1  1
 22 23  1  0
 14 24  1  6
 18 24  1  0
M  END
$$$$
69
     RDKit          3D

 24 26  0  0  0  0  0  0  0  0999 V2000
   29.2001   11.3146   22.8705 N   0  0  0  0  0  0  0  0  0  0  0  0
   29.9424   10.9423   23.7039 C   0  0  2  0  0  0  0  0  0  0  0  0
   29.5270   10.2751   24.8714 N   0  0  0  0  0  0  0  0  0  0  0  0
   29.5508   12.2811   21.8767 C   0  0  1  0  0  0  0  0  0  0  0  0
   30.9135   12.5605   21.7314 N   0  0  0  0  0  0  0  0  0  0  0  0
   31.3632   11.3029   23.6698 C   0  0  2  0  0  0  0  0  0  0  0  0
   31.7627   12.1317   22.6352 C   0  0  0  0  0  0  0  0  0  0  0  0
   30.4669    9.8327   25.6985 C   0  0  1  0  0  0  0  0  0  0  0  0
   31.8276   10.1986   25.6273 C   0  0  1  0  0  0  0  0  0  0  0  0
   32.6737    9.5059   26.3980 O   0  0  0  0  0  0  0  0  0  0  0  0
   28.6955   12.7435   20.9370 N   0  0  0  0  0  0  0  0  0  0  0  0
   32.8510    8.0045   25.9952 C   0  0  0  0  0  0  0  0  0  0  0  0
   32.3425   10.7856   24.4713 C   0  0  1  0  0  0  0  0  0  0  0  0
   30.0762    8.9693   26.8299 O   0  0  0  0  0  0  0  0  0  0  0  0
   33.6926   10.3725   24.1102 C   0  0  0  0  0  0  0  0  0  0  0  0
   29.1390    9.4132   27.7033 C   0  0  0  0  0  0  0  0  0  0  0  0
   33.2396   12.7186   22.2860 C   0  0  0  0  0  0  0  0  0  0  0  0
   34.2001   11.7634   22.7856 C   0  0  0  0  0  0  0  0  0  0  0  0
   33.5146    7.2466   26.9657 C   0  0  2  0  0  0  0  0  0  0  0  0
   34.4520    6.3531   26.6580 O   0  0  0  0  0  0  0  0  0  0  0  0
   32.6039    6.7315   27.8737 O   0  0  0  0  0  0  0  0  0  0  0  0
   32.7770    6.2740   29.1805 C   0  0  0  0  0  0  0  0  0  0  0  0
   32.1038    5.1928   29.6675 C   0  0  0  0  0  0  0  0  0  0  0  0
   31.6475    5.2263   30.8530 O   0  0  0  0  0  0  0  0  0  0  0  0
  2  1  1  1
  2  3  1  0
  1  4  1  0
  4  5  1  0
  2  6  1  0
  5  7  1  0
  6  7  1  6
  3  8  1  0
  8  9  1  0
  9 10  1  6
  4 11  1  6
 10 12  1  0
  6 13  1  0
  9 13  1  0
  8 14  1  1
 13 15  1  6
 14 16  1  0
  7 17  1  0
 15 18  1  0
 17 18  1  0
 12 19  1  0
 19 20  1  6
 19 21  1  0
 21 22  1  0
 22 23  1  0
 23 24  1  0
M  END
$$$$
7
     RDKit          3D

 16 17  0  0  0  0  0  0  0  0999 V2000
   29.2737   10.4558   23.8011 N   0  0  0  0  0  0  0  0  0  0  0  0
   30.0611   11.2627   23.3658 C   0  0  1  0  0  0  0  0  0  0  0  0
   29.4536   10.1799   25.1796 C   0  0  0  0  0  0  0  0  0  0  0  0
   31.2418   11.6059   24.0675 N   0  0  0  0  0  0  0  0  0  0  0  0
   30.5933   10.4745   25.7927 C   0  0  1  0  0  0  0  0  0  0  0  0
   29.9642   11.7232   21.8904 C   0  0  0  0  0  0  0  0  0  0  0  0
   32.2277   12.5430   23.2919 C   0  0  1  0  0  0  0  0  0  0  0  0
   30.8417   12.5142   21.2812 C   0  0  0  0  0  0  0  0  0  0  0  0
   33.3643   12.8821   23.9155 C   0  0  0  0  0  0  0  0  0  0  0  0
   34.4386   13.0292   22.9281 C   0  0  0  0  0  0  0  0  0  0  0  0
   28.4389    9.4989   25.7450 O   0  0  0  0  0  0  0  0  0  0  0  0
   30.7341    9.8668   27.1553 C   0  0  0  0  0  0  0  0  0  0  0  0
   31.7195   10.9376   25.1755 C   0  0  0  0  0  0  0  0  0  0  0  0
   29.9730   10.3079   28.1527 O   0  0  0  0  0  0  0  0  0  0  0  0
   31.3799    8.7692   27.2871 O   0  0  0  0  0  0  0  0  0  0  0  0
   32.0018   12.9450   21.9665 C   0  0  0  0  0  0  0  0  0  0  0  0
  1  2  1  0
  1  3  1  0
  2  4  1  0
  3  5  1  0
  2  6  1  6
  4  7  1  0
  6  8  1  0
  7  9  1  6
  9 10  1  0
  3 11  2  0
  5 12  1  6
  4 13  1  0
  5 13  1  0
 12 14  1  0
 12 15  2  0
  7 16  1  0
  8 16  1  0
M  END
$$$$
70
     RDKit          3D

 24 29  0  0  0  0  0  0  0  0999 V2000
   29.2592   12.1480   22.0997 C   0  0  0  0  0  0  0  0  0  0  0  0
   29.6030   11.4340   23.1202 N   0  0  0  0  0  0  0  0  0  0  0  0
   28.8378   10.7477   23.9266 N   0  0  0  0  0  0  0  0  0  0  0  0
   29.3489   10.1959   25.0666 C   0  0  0  0  0  0  0  0  0  0  0  0
   29.8629   12.8817   21.3541 C   0  0  0  0  0  0  0  0  0  0  0  0
   30.7950   10.1811   25.1469 C   0  0  0  0  0  0  0  0  0  0  0  0
   31.4751    9.4461   26.1942 N   0  0  0  0  0  0  0  0  0  0  0  0
   31.2436   12.6299   21.6128 C   0  0  0  0  0  0  0  0  0  0  0  0
   32.6622    8.8704   25.8949 C   0  0  1  0  0  0  0  0  0  0  0  0
   31.4745   10.9078   24.1592 C   0  0  0  0  0  0  0  0  0  0  0  0
   32.9944   10.9409   24.2755 C   0  0  2  0  0  0  0  0  0  0  0  0
   30.9616   11.5865   23.0251 C   0  0  1  0  0  0  0  0  0  0  0  0
   30.6189    9.0011   27.2926 C   0  0  0  0  0  0  0  0  0  0  0  0
   33.8404   11.6470   23.5464 C   0  0  0  0  0  0  0  0  0  0  0  0
   35.0507   10.9687   23.1076 C   0  0  0  0  0  0  0  0  0  0  0  0
   33.4524    9.5272   24.6899 C   0  0  1  0  0  0  0  0  0  0  0  0
   33.3305    7.8879   26.5956 C   0  0  2  0  0  0  0  0  0  0  0  0
   34.5567    7.3461   26.1677 N   0  0  0  0  0  0  0  0  0  0  0  0
   34.5884    6.6331   25.0112 C   0  0  0  0  0  0  0  0  0  0  0  0
   34.7044    8.8815   24.2201 C   0  0  2  0  0  0  0  0  0  0  0  0
   35.2642    9.6334   23.1714 C   0  0  0  0  0  0  0  0  0  0  0  0
   30.9426    7.8096   27.8070 C   0  0  0  0  0  0  0  0  0  0  0  0
   32.3150    7.1098   27.4474 N   0  0  0  0  0  0  0  0  0  0  0  0
   34.8021    7.5150   23.8799 C   0  0  0  0  0  0  0  0  0  0  0  0
  1  2  1  0
  2  3  1  0
  3  4  1  0
  1  5  1  0
  4  6  1  0
  6  7  1  0
  5  8  1  0
  9  7  1  1
  6 10  1  0
 10 11  1  0
  2 12  1  0
 12  8  1  1
 10 12  1  0
  7 13  1  0
 11 14  1  6
 14 15  1  0
  9 16  1  0
 16 11  1  1
  9 17  1  0
 17 18  1  6
 18 19  1  0
 16 20  1  0
 15 21  1  0
 20 21  1  6
 13 22  1  0
 17 23  1  0
 22 23  1  0
 19 24  1  0
 20 24  1  0
M  END
$$$$
71
     RDKit          3D

 24 26  0  0  0  0  0  0  0  0999 V2000
   30.4746    8.5754   27.9513 N   0  0  0  0  0  0  0  0  0  0  0  0
   31.2692    7.6013   27.6517 C   0  0  0  0  0  0  0  0  0  0  0  0
   30.2294    9.4714   27.0107 C   0  0  0  0  0  0  0  0  0  0  0  0
   32.0007    7.7285   26.7775 N   0  0  0  0  0  0  0  0  0  0  0  0
   33.1357    6.7742   26.3728 C   0  0  2  0  0  0  0  0  0  0  0  0
   33.4594    5.9629   27.2168 O   0  0  0  0  0  0  0  0  0  0  0  0
   31.8510    8.7568   25.8344 C   0  0  1  0  0  0  0  0  0  0  0  0
   34.7153    5.2168   27.1100 C   0  0  0  0  0  0  0  0  0  0  0  0
   32.8740    8.8231   24.7618 N   0  0  0  0  0  0  0  0  0  0  0  0
   33.8573    7.1606   25.1757 C   0  0  0  0  0  0  0  0  0  0  0  0
   32.5513   10.0033   23.9170 C   0  0  1  0  0  0  0  0  0  0  0  0
   31.3715   10.4991   24.3798 C   0  0  2  0  0  0  0  0  0  0  0  0
   29.2286   10.4294   27.1754 O   0  0  0  0  0  0  0  0  0  0  0  0
   30.9257    9.7231   25.5921 C   0  0  2  0  0  0  0  0  0  0  0  0
   33.8328    8.0303   24.4065 C   0  0  0  0  0  0  0  0  0  0  0  0
   34.5837    8.1558   23.3015 O   0  0  0  0  0  0  0  0  0  0  0  0
   30.2756   10.7049   23.5181 C   0  0  0  0  0  0  0  0  0  0  0  0
   33.5876   10.7602   23.2688 N   0  0  0  0  0  0  0  0  0  0  0  0
   28.9134   10.5679   23.9123 O   0  0  0  0  0  0  0  0  0  0  0  0
   33.9530   12.0478   23.6065 C   0  0  0  0  0  0  0  0  0  0  0  0
   31.1348    6.4120   28.4601 O   0  0  0  0  0  0  0  0  0  0  0  0
   30.3907   11.2002   22.3213 N   0  0  0  0  0  0  0  0  0  0  0  0
   31.4202   12.0013   21.7312 C   0  0  0  0  0  0  0  0  0  0  0  0
   31.1079   12.4638   20.5190 C   0  0  0  0  0  0  0  0  0  0  0  0
  1  2  1  0
  1  3  1  0
  2  4  1  0
  4  5  1  0
  5  6  1  1
  7  4  1  6
  6  8  1  0
  7  9  1  0
  5 10  1  0
  9 11  1  0
 11 12  1  0
  3 13  2  0
 14  3  1  1
  7 14  1  0
 12 14  1  0
  9 15  1  0
 10 15  1  0
 15 16  2  0
 12 17  1  6
 11 18  1  1
 17 19  2  0
 18 20  1  0
  2 21  2  0
 17 22  1  0
 22 23  1  0
 23 24  1  0
M  END
$$$$
72
     RDKit          3D

 24 29  0  0  0  0  0  0  0  0999 V2000
   29.2592   12.1480   22.0997 C   0  0  0  0  0  0  0  0  0  0  0  0
   29.6030   11.4340   23.1202 N   0  0  0  0  0  0  0  0  0  0  0  0
   28.8378   10.7477   23.9266 N   0  0  0  0  0  0  0  0  0  0  0  0
   29.3489   10.1959   25.0666 C   0  0  0  0  0  0  0  0  0  0  0  0
   29.8629   12.8817   21.3541 C   0  0  0  0  0  0  0  0  0  0  0  0
   30.7950   10.1811   25.1469 C   0  0  0  0  0  0  0  0  0  0  0  0
   31.4751    9.4461   26.1942 N   0  0  0  0  0  0  0  0  0  0  0  0
   31.2436   12.6299   21.6128 C   0  0  0  0  0  0  0  0  0  0  0  0
   32.6622    8.8704   25.8949 C   0  0  1  0  0  0  0  0  0  0  0  0
   31.4745   10.9078   24.1592 C   0  0  0  0  0  0  0  0  0  0  0  0
   32.9944   10.9409   24.2755 C   0  0  2  0  0  0  0  0  0  0  0  0
   30.9616   11.5865   23.0251 C   0  0  1  0  0  0  0  0  0  0  0  0
   30.6189    9.0011   27.2926 C   0  0  0  0  0  0  0  0  0  0  0  0
   33.8404   11.6470   23.5464 C   0  0  0  0  0  0  0  0  0  0  0  0
   35.0507   10.9687   23.1076 C   0  0  0  0  0  0  0  0  0  0  0  0
   33.4524    9.5272   24.6899 C   0  0  1  0  0  0  0  0  0  0  0  0
   33.3305    7.8879   26.5956 C   0  0  2  0  0  0  0  0  0  0  0  0
   34.5567    7.3461   26.1677 N   0  0  0  0  0  0  0  0  0  0  0  0
   34.5884    6.6331   25.0112 C   0  0  0  0  0  0  0  0  0  0  0  0
   34.7044    8.8815   24.2201 C   0  0  2  0  0  0  0  0  0  0  0  0
   35.2642    9.6334   23.1714 C   0  0  0  0  0  0  0  0  0  0  0  0
   30.9426    7.8096   27.8070 C   0  0  0  0  0  0  0  0  0  0  0  0
   32.3150    7.1098   27.4474 N   0  0  0  0  0  0  0  0  0  0  0  0
   35.0691    7.5913   24.1226 N   0  0  0  0  0  0  0  0  0  0  0  0
  1  2  1  0
  2  3  1  0
  3  4  1  0
  1  5  1  0
  4  6  1  0
  6  7  1  0
  5  8  1  0
  9  7  1  1
  6 10  1  0
 10 11  1  0
  2 12  1  0
 12  8  1  1
 10 12  1  0
  7 13  1  0
 11 14  1  6
 14 15  1  0
  9 16  1  0
 16 11  1  1
  9 17  1  0
 17 18  1  6
 18 19  1  0
 16 20  1  0
 15 21  1  0
 20 21  1  6
 13 22  1  0
 17 23  1  0
 22 23  1  0
 19 24  1  0
 20 24  1  0
M  END
$$$$
73
     RDKit          3D

 24 26  0  0  0  0  0  0  0  0999 V2000
   29.3919   11.6711   22.3202 N   0  0  0  0  0  0  0  0  0  0  0  0
   29.9093   11.2007   23.3313 C   0  0  1  0  0  0  0  0  0  0  0  0
   30.0583   12.6248   21.5079 C   0  0  2  0  0  0  0  0  0  0  0  0
   29.4621   13.1455   20.4256 N   0  0  0  0  0  0  0  0  0  0  0  0
   31.4026   12.8235   21.8529 N   0  0  0  0  0  0  0  0  0  0  0  0
   31.9306   12.1757   22.8797 C   0  0  2  0  0  0  0  0  0  0  0  0
   29.3031   10.3172   24.1633 N   0  0  0  0  0  0  0  0  0  0  0  0
   31.2992   11.4246   23.6615 C   0  0  0  0  0  0  0  0  0  0  0  0
   31.6391   10.7436   24.8413 C   0  0  0  0  0  0  0  0  0  0  0  0
   33.4142   12.6760   22.9923 C   0  0  0  0  0  0  0  0  0  0  0  0
   34.2314   11.8664   23.6403 C   0  0  0  0  0  0  0  0  0  0  0  0
   34.8308   10.7354   22.8479 O   0  0  0  0  0  0  0  0  0  0  0  0
   30.3614   10.0657   25.1633 C   0  0  0  0  0  0  0  0  0  0  0  0
   35.3014    9.7379   23.3576 C   0  0  0  0  0  0  0  0  0  0  0  0
   30.2281    9.2268   26.3875 C   0  0  0  0  0  0  0  0  0  0  0  0
   34.5046    8.6179   23.2871 C   0  0  0  0  0  0  0  0  0  0  0  0
   34.8800    7.4420   23.9780 C   0  0  0  0  0  0  0  0  0  0  0  0
   34.1683    6.7716   24.7197 C   0  0  0  0  0  0  0  0  0  0  0  0
   29.2536    9.4040   27.1188 O   0  0  0  0  0  0  0  0  0  0  0  0
   31.0365    8.3061   26.6460 N   0  0  0  0  0  0  0  0  0  0  0  0
   32.1270    7.7818   25.8595 C   0  0  0  0  0  0  0  0  0  0  0  0
   30.9260    7.5372   27.8740 C   0  0  0  0  0  0  0  0  0  0  0  0
   33.3111    7.5025   25.8615 C   0  0  0  0  0  0  0  0  0  0  0  0
   34.1307    5.3886   24.7961 O   0  0  0  0  0  0  0  0  0  0  0  0
  2  1  1  6
  1  3  1  0
  3  4  1  6
  3  5  1  0
  5  6  1  0
  2  7  1  0
  2  8  1  0
  6  8  1  0
  8  9  1  0
  6 10  1  1
 10 11  1  0
 11 12  1  0
  7 13  1  0
  9 13  1  0
 12 14  1  0
 13 15  1  0
 14 16  1  0
 16 17  1  0
 17 18  1  0
 15 19  2  0
 15 20  1  0
 20 21  1  0
 20 22  1  0
 18 23  1  0
 21 23  2  3
 18 24  2  0
M  END
$$$$
74
     RDKit          3D

 24 27  0  0  0  0  0  0  0  0999 V2000
   30.0228   12.5864   21.7485 C   0  0  1  0  0  0  0  0  0  0  0  0
   31.3032   12.6102   21.9838 C   0  0  0  0  0  0  0  0  0  0  0  0
   29.1866   11.8122   22.6172 N   0  0  0  0  0  0  0  0  0  0  0  0
   29.3055   13.2587   20.8077 N   0  0  0  0  0  0  0  0  0  0  0  0
   31.7920   11.9050   22.9669 C   0  0  1  0  0  0  0  0  0  0  0  0
   29.7558   11.1147   23.6163 C   0  0  1  0  0  0  0  0  0  0  0  0
   31.1122   11.1273   23.8105 C   0  0  0  0  0  0  0  0  0  0  0  0
   28.9019   10.3721   24.5736 N   0  0  0  0  0  0  0  0  0  0  0  0
   33.3419   11.8800   23.1287 C   0  0  0  0  0  0  0  0  0  0  0  0
   31.5018   10.2803   24.9496 C   0  0  1  0  0  0  0  0  0  0  0  0
   29.5175   10.0672   25.7333 C   0  0  0  0  0  0  0  0  0  0  0  0
   30.7496    9.8358   25.8594 C   0  0  0  0  0  0  0  0  0  0  0  0
   33.9000   12.8248   23.8949 C   0  0  0  0  0  0  0  0  0  0  0  0
   31.2200    9.1402   27.0405 C   0  0  2  0  0  0  0  0  0  0  0  0
   32.3737    8.3733   26.9878 N   0  0  0  0  0  0  0  0  0  0  0  0
   33.2712    8.4934   26.0276 C   0  0  1  0  0  0  0  0  0  0  0  0
   30.0854    8.3907   27.6181 O   0  0  0  0  0  0  0  0  0  0  0  0
   32.3759    7.4950   27.9658 C   0  0  0  0  0  0  0  0  0  0  0  0
   34.2299    7.4873   25.8386 C   0  0  0  0  0  0  0  0  0  0  0  0
   32.9945    9.7317   24.9520 C   0  0  0  0  0  0  0  0  0  0  0  0
   30.9306    7.4718   28.5575 C   0  0  0  0  0  0  0  0  0  0  0  0
   34.5407    6.9855   24.4752 C   0  0  0  0  0  0  0  0  0  0  0  0
   33.6288    6.6529   23.7136 O   0  0  0  0  0  0  0  0  0  0  0  0
   35.7426    6.6328   24.2722 O   0  0  0  0  0  0  0  0  0  0  0  0
  1  2  1  0
  1  3  1  0
  1  4  1  1
  2  5  1  0
  6  3  1  1
  5  7  1  0
  6  7  1  0
  6  8  1  0
  5  9  1  6
  7 10  1  0
  8 11  1  0
 10 12  1  0
 11 12  1  0
  9 13  1  0
 12 14  1  0
 14 15  1  0
 15 16  1  0
 14 17  1  6
 15 18  1  0
 16 19  1  6
 10 20  1  6
 16 20  1  0
 17 21  1  0
 18 21  1  0
 19 22  1  0
 22 23  2  0
 22 24  1  0
M  END
$$$$
75
     RDKit          3D

 24 26  0  0  0  0  0  0  0  0999 V2000
   28.4769   10.5527   25.4471 O   0  0  0  0  0  0  0  0  0  0  0  0
   29.7668   10.1608   25.5102 C   0  0  2  0  0  0  0  0  0  0  0  0
   30.2762    9.5843   26.6820 C   0  0  1  0  0  0  0  0  0  0  0  0
   30.6425   10.5906   24.5262 C   0  0  1  0  0  0  0  0  0  0  0  0
   29.3977    9.1726   27.7744 O   0  0  0  0  0  0  0  0  0  0  0  0
   31.9640   10.1836   24.5978 C   0  0  1  0  0  0  0  0  0  0  0  0
   30.1072   11.3205   23.4876 C   0  0  0  0  0  0  0  0  0  0  0  0
   31.5128    8.8777   26.6746 C   0  0  1  0  0  0  0  0  0  0  0  0
   30.9772   11.7876   22.4611 O   0  0  0  0  0  0  0  0  0  0  0  0
   32.3977    9.3213   25.5961 C   0  0  0  0  0  0  0  0  0  0  0  0
   33.7276    8.7912   25.6474 N   0  0  0  0  0  0  0  0  0  0  0  0
   30.4557   12.5595   21.4378 C   0  0  0  0  0  0  0  0  0  0  0  0
   31.7304    8.0326   27.6527 O   0  0  0  0  0  0  0  0  0  0  0  0
   33.2424   10.3507   23.7693 C   0  0  0  0  0  0  0  0  0  0  0  0
   34.2120    9.5291   24.4600 C   0  0  0  0  0  0  0  0  0  0  0  0
   29.2512   13.0221   21.7024 C   0  0  0  0  0  0  0  0  0  0  0  0
   31.6763    6.7736   27.7618 C   0  0  0  0  0  0  0  0  0  0  0  0
   28.4747   12.3917   22.7307 O   0  0  0  0  0  0  0  0  0  0  0  0
   29.0028   11.7506   23.6459 C   0  0  0  0  0  0  0  0  0  0  0  0
   32.0600    6.2353   29.0361 C   0  0  0  0  0  0  0  0  0  0  0  0
   33.1426    5.3682   29.0777 O   0  0  0  0  0  0  0  0  0  0  0  0
   34.3457    5.7524   29.7238 C   0  0  0  0  0  0  0  0  0  0  0  0
   35.4776    5.7375   28.8048 C   0  0  0  0  0  0  0  0  0  0  0  0
   35.0054    4.7009   27.8289 O   0  0  0  0  0  0  0  0  0  0  0  0
  2  1  1  1
  2  3  1  0
  2  4  1  0
  3  5  1  6
  4  6  1  0
  4  7  1  6
  3  8  1  0
  7  9  1  0
  6 10  1  0
  8 10  1  0
 10 11  1  0
  9 12  1  0
  8 13  1  1
  6 14  1  6
 11 15  1  0
 14 15  1  0
 12 16  1  0
 13 17  1  0
 16 18  1  0
  7 19  2  0
 18 19  1  0
 17 20  1  0
 20 21  1  0
 21 22  1  0
 22 23  1  0
 23 24  1  0
M  END
$$$$
76
     RDKit          3D

 25 29  0  0  0  0  0  0  0  0999 V2000
   30.6804   12.8394   21.1336 C   0  0  0  0  0  0  0  0  0  0  0  0
   31.8325   12.6790   21.7882 C   0  0  2  0  0  0  0  0  0  0  0  0
   33.0447   13.1452   21.2602 C   0  0  0  0  0  0  0  0  0  0  0  0
   31.8973   11.9038   23.0333 C   0  0  0  0  0  0  0  0  0  0  0  0
   29.4892   12.2818   21.9263 C   0  0  0  0  0  0  0  0  0  0  0  0
   29.5979   11.5327   22.9939 C   0  0  0  0  0  0  0  0  0  0  0  0
   30.8007   11.3796   23.6119 C   0  0  1  0  0  0  0  0  0  0  0  0
   30.7946   10.5767   24.7656 C   0  0  2  0  0  0  0  0  0  0  0  0
   31.9342    9.8381   25.2004 C   0  0  2  0  0  0  0  0  0  0  0  0
   33.2478   11.6854   23.7357 C   0  0  0  0  0  0  0  0  0  0  0  0
   32.0263    9.1243   26.3308 N   0  0  0  0  0  0  0  0  0  0  0  0
   33.2266   10.6021   24.7221 C   0  0  0  0  0  0  0  0  0  0  0  0
   29.6003   10.1190   25.4852 C   0  0  0  0  0  0  0  0  0  0  0  0
   29.7351    9.4034   26.6723 C   0  0  2  0  0  0  0  0  0  0  0  0
   33.2897    8.4627   26.5423 C   0  0  0  0  0  0  0  0  0  0  0  0
   30.9102    8.8061   27.0316 C   0  0  1  0  0  0  0  0  0  0  0  0
   28.6368    9.1190   27.4023 O   0  0  0  0  0  0  0  0  0  0  0  0
   33.1555    7.3760   27.5654 C   0  0  0  0  0  0  0  0  0  0  0  0
   31.0191    7.7157   27.8300 C   0  0  0  0  0  0  0  0  0  0  0  0
   32.0836    7.1005   28.2025 N   0  0  0  0  0  0  0  0  0  0  0  0
   34.2872    6.5799   27.8759 C   0  0  2  0  0  0  0  0  0  0  0  0
   34.6809    5.5674   27.0414 N   0  0  0  0  0  0  0  0  0  0  0  0
   34.4208    5.9562   29.1553 C   0  0  0  0  0  0  0  0  0  0  0  0
   35.3251    4.9085   29.0662 C   0  0  0  0  0  0  0  0  0  0  0  0
   35.3403    4.5942   27.6585 N   0  0  0  0  0  0  0  0  0  0  0  0
  1  2  1  0
  2  3  1  6
  2  4  1  0
  1  5  1  0
  5  6  1  0
  4  7  1  0
  7  6  1  6
  7  8  1  0
  8  9  1  0
  4 10  1  0
  9 11  1  0
  9 12  1  1
 10 12  1  0
  8 13  1  6
 13 14  1  0
 11 15  1  0
 11 16  1  0
 14 16  1  0
 14 17  1  6
 15 18  1  0
 16 19  1  6
 18 20  1  0
 19 20  1  0
 21 18  1  6
 21 22  1  0
 21 23  1  0
 23 24  1  0
 22 25  1  0
 24 25  1  0
M  END
$$$$
77
     RDKit          3D

 25 26  0  0  0  0  0  0  0  0999 V2000
   29.2737   10.4558   23.8011 C   0  0  2  0  0  0  0  0  0  0  0  0
   30.2888   10.0258   24.5823 C   0  0  2  0  0  0  0  0  0  0  0  0
   30.1677    9.2672   25.7047 O   0  0  0  0  0  0  0  0  0  0  0  0
   31.1220    9.3000   26.8409 C   0  0  0  0  0  0  0  0  0  0  0  0
   30.5822    8.5439   27.9081 C   0  0  0  0  0  0  0  0  0  0  0  0
   30.6037    7.1804   27.6019 O   0  0  0  0  0  0  0  0  0  0  0  0
   29.3936   11.3233   22.7650 N   0  0  0  0  0  0  0  0  0  0  0  0
   31.6280   10.5275   24.1399 C   0  0  2  0  0  0  0  0  0  0  0  0
   28.0419   10.0068   24.1687 O   0  0  0  0  0  0  0  0  0  0  0  0
   32.8615   10.1475   24.8784 O   0  0  0  0  0  0  0  0  0  0  0  0
   33.3123    8.7877   24.7578 C   0  0  1  0  0  0  0  0  0  0  0  0
   33.8151    8.4698   23.5000 C   0  0  0  0  0  0  0  0  0  0  0  0
   34.5339    8.8608   25.7168 C   0  0  0  0  0  0  0  0  0  0  0  0
   34.5212    7.2127   23.4099 C   0  0  2  0  0  0  0  0  0  0  0  0
   31.7331   11.5170   23.1230 C   0  0  1  0  0  0  0  0  0  0  0  0
   33.0704   12.0393   22.7103 C   0  0  0  0  0  0  0  0  0  0  0  0
   35.6359    7.1237   24.3803 C   0  0  0  0  0  0  0  0  0  0  0  0
   35.0065    7.0961   22.0049 N   0  0  0  0  0  0  0  0  0  0  0  0
   30.6324   11.8430   22.3995 C   0  0  0  0  0  0  0  0  0  0  0  0
   35.1125    7.4651   25.6472 N   0  0  0  0  0  0  0  0  0  0  0  0
   30.6771   12.7005   21.3211 O   0  0  0  0  0  0  0  0  0  0  0  0
   35.7485    6.1487   21.5970 C   0  0  0  0  0  0  0  0  0  0  0  0
   35.9577    5.1102   22.3812 O   0  0  0  0  0  0  0  0  0  0  0  0
   36.2042    6.1770   20.1942 C   0  0  0  0  0  0  0  0  0  0  0  0
   29.5454   13.2850   20.9197 C   0  0  0  0  0  0  0  0  0  0  0  0
  1  2  1  0
  2  3  1  1
  3  4  1  0
  4  5  1  0
  5  6  1  0
  1  7  1  0
  2  8  1  0
  1  9  1  1
  8 10  1  1
 11 10  1  6
 11 12  1  0
 11 13  1  0
 12 14  1  0
  8 15  1  0
 15 16  1  6
 14 17  1  0
 14 18  1  6
  7 19  1  0
 15 19  1  0
 13 20  1  0
 17 20  1  0
 19 21  1  0
 18 22  1  0
 22 23  2  0
 22 24  1  0
 21 25  1  0
M  END
$$$$
78
     RDKit          3D

 25 29  0  0  0  0  0  0  0  0999 V2000
   29.3919   11.6711   22.3202 N   0  0  0  0  0  0  0  0  0  0  0  0
   29.9093   11.2007   23.3313 C   0  0  2  0  0  0  0  0  0  0  0  0
   31.3391   11.4615   23.3786 C   0  0  0  0  0  0  0  0  0  0  0  0
   30.0006   12.5610   21.4541 C   0  0  0  0  0  0  0  0  0  0  0  0
   32.0211   12.2673   22.4984 C   0  0  1  0  0  0  0  0  0  0  0  0
   31.2784   12.8441   21.4500 C   0  0  0  0  0  0  0  0  0  0  0  0
   33.4611   12.6205   22.6363 C   0  0  0  0  0  0  0  0  0  0  0  0
   29.4247   10.4269   24.3038 C   0  0  2  0  0  0  0  0  0  0  0  0
   28.0983   10.2523   24.4737 O   0  0  0  0  0  0  0  0  0  0  0  0
   30.2645    9.8721   25.3320 C   0  0  1  0  0  0  0  0  0  0  0  0
   32.1283   10.8687   24.4648 C   0  0  2  0  0  0  0  0  0  0  0  0
   33.5826   11.0369   24.4631 C   0  0  0  0  0  0  0  0  0  0  0  0
   34.1158   12.0112   23.5829 C   0  0  0  0  0  0  0  0  0  0  0  0
   31.5876   10.0988   25.4264 C   0  0  2  0  0  0  0  0  0  0  0  0
   29.5155    9.4033   26.5673 O   0  0  0  0  0  0  0  0  0  0  0  0
   30.2432    8.8521   27.6206 C   0  0  1  0  0  0  0  0  0  0  0  0
   29.9896    7.6828   27.9464 C   0  0  0  0  0  0  0  0  0  0  0  0
   31.2308    6.9107   27.5330 O   0  0  0  0  0  0  0  0  0  0  0  0
   32.4457    7.4551   27.6688 C   0  0  1  0  0  0  0  0  0  0  0  0
   33.5320    6.7653   27.9928 C   0  0  0  0  0  0  0  0  0  0  0  0
   32.2452    8.8432   27.2955 C   0  0  1  0  0  0  0  0  0  0  0  0
   32.4230    9.3402   26.3326 C   0  0  0  0  0  0  0  0  0  0  0  0
   34.1041    6.9704   29.2289 O   0  0  0  0  0  0  0  0  0  0  0  0
   33.7540    5.4326   27.8093 O   0  0  0  0  0  0  0  0  0  0  0  0
   31.3181    9.4511   28.0775 C   0  0  0  0  0  0  0  0  0  0  0  0
  2  1  1  6
  2  3  1  0
  1  4  1  0
  3  5  1  0
  4  6  1  0
  5  6  1  1
  5  7  1  0
  2  8  1  0
  8  9  1  1
  8 10  1  0
  3 11  1  0
 11 12  1  6
  7 13  1  0
 12 13  1  0
 10 14  1  0
 11 14  1  0
 10 15  1  1
 15 16  1  0
 16 17  1  6
 17 18  1  0
 18 19  1  0
 19 20  1  6
 19 21  1  0
 14 22  1  6
 21 22  1  6
 20 23  1  0
 20 24  2  0
 16 25  1  0
 21 25  1  0
M  END
$$$$
79
     RDKit          3D

 25 29  0  0  0  0  0  0  0  0999 V2000
   30.6804   12.8394   21.1336 C   0  0  0  0  0  0  0  0  0  0  0  0
   31.8325   12.6790   21.7882 C   0  0  2  0  0  0  0  0  0  0  0  0
   33.0447   13.1452   21.2602 C   0  0  0  0  0  0  0  0  0  0  0  0
   31.8973   11.9038   23.0333 C   0  0  0  0  0  0  0  0  0  0  0  0
   29.4892   12.2818   21.9263 C   0  0  0  0  0  0  0  0  0  0  0  0
   29.5979   11.5327   22.9939 C   0  0  0  0  0  0  0  0  0  0  0  0
   30.8007   11.3796   23.6119 C   0  0  1  0  0  0  0  0  0  0  0  0
   30.7946   10.5767   24.7656 C   0  0  2  0  0  0  0  0  0  0  0  0
   31.9342    9.8381   25.2004 C   0  0  2  0  0  0  0  0  0  0  0  0
   33.2478   11.6854   23.7357 C   0  0  0  0  0  0  0  0  0  0  0  0
   32.0263    9.1243   26.3308 N   0  0  0  0  0  0  0  0  0  0  0  0
   33.2266   10.6021   24.7221 C   0  0  0  0  0  0  0  0  0  0  0  0
   29.6003   10.1190   25.4852 C   0  0  0  0  0  0  0  0  0  0  0  0
   29.7351    9.4034   26.6723 C   0  0  2  0  0  0  0  0  0  0  0  0
   33.2897    8.4627   26.5423 C   0  0  0  0  0  0  0  0  0  0  0  0
   30.9102    8.8061   27.0316 C   0  0  2  0  0  0  0  0  0  0  0  0
   28.6368    9.1190   27.4023 O   0  0  0  0  0  0  0  0  0  0  0  0
   33.1555    7.3760   27.5654 C   0  0  2  0  0  0  0  0  0  0  0  0
   31.0963    8.0305   28.1819 C   0  0  0  0  0  0  0  0  0  0  0  0
   32.1267    7.1439   28.2406 C   0  0  0  0  0  0  0  0  0  0  0  0
   34.4944    6.5896   27.8710 C   0  0  1  0  0  0  0  0  0  0  0  0
   34.7205    6.5328   29.1386 O   0  0  0  0  0  0  0  0  0  0  0  0
   34.4161    5.2295   27.3843 C   0  0  0  0  0  0  0  0  0  0  0  0
   34.9698    5.2378   29.6641 C   0  0  0  0  0  0  0  0  0  0  0  0
   34.5243    4.4413   28.6964 C   0  0  0  0  0  0  0  0  0  0  0  0
  1  2  1  0
  2  3  1  6
  2  4  1  0
  1  5  1  0
  5  6  1  0
  4  7  1  0
  7  6  1  6
  7  8  1  0
  8  9  1  0
  4 10  1  0
  9 11  1  0
  9 12  1  1
 10 12  1  0
  8 13  1  6
 13 14  1  0
 11 15  1  0
 11 16  1  0
 14 16  1  0
 14 17  1  6
 18 15  1  1
 16 19  1  1
 18 20  1  0
 19 20  1  0
 18 21  1  0
 21 22  1  0
 21 23  1  1
 22 24  1  0
 23 25  1  0
 24 25  1  0
M  END
$$$$
8
     RDKit          3D

 17 18  0  0  0  0  0  0  0  0999 V2000
   29.2737   10.4558   23.8011 C   0  0  2  0  0  0  0  0  0  0  0  0
   30.2888   10.0258   24.5823 C   0  0  2  0  0  0  0  0  0  0  0  0
   30.1677    9.2672   25.7047 O   0  0  0  0  0  0  0  0  0  0  0  0
   31.1220    9.3000   26.8409 C   0  0  1  0  0  0  0  0  0  0  0  0
   30.5822    8.5439   27.9081 C   0  0  0  0  0  0  0  0  0  0  0  0
   30.6037    7.1804   27.6019 O   0  0  0  0  0  0  0  0  0  0  0  0
   29.3936   11.3233   22.7650 N   0  0  0  0  0  0  0  0  0  0  0  0
   31.6280   10.5275   24.1399 C   0  0  0  0  0  0  0  0  0  0  0  0
   27.9372   10.1025   24.1850 O   0  0  0  0  0  0  0  0  0  0  0  0
   30.6112   11.7274   22.3139 C   0  0  2  0  0  0  0  0  0  0  0  0
   32.8215   10.0849   24.8417 C   0  0  0  0  0  0  0  0  0  0  0  0
   32.3833    8.9036   26.0311 C   0  0  2  0  0  0  0  0  0  0  0  0
   31.7794   11.4485   23.0707 C   0  0  2  0  0  0  0  0  0  0  0  0
   33.0974   11.9034   22.6149 C   0  0  0  0  0  0  0  0  0  0  0  0
   30.5707   12.6457   21.0772 C   0  0  0  0  0  0  0  0  0  0  0  0
   32.3080    7.5845   25.6185 O   0  0  0  0  0  0  0  0  0  0  0  0
   33.8705   12.6499   23.2337 C   0  0  0  0  0  0  0  0  0  0  0  0
  1  2  1  0
  2  3  1  1
  3  4  1  0
  4  5  1  1
  5  6  1  0
  1  7  1  0
  2  8  1  0
  1  9  1  1
  7 10  1  0
  8 11  1  0
  4 12  1  0
 11 12  1  0
  8 13  1  0
 10 13  1  0
 13 14  1  6
 10 15  1  1
 12 16  1  6
 14 17  2  0
M  END
$$$$
80
     RDKit          3D

 25 26  0  0  0  0  0  0  0  0999 V2000
   34.2800   12.5589   23.2846 C   0  0  0  0  0  0  0  0  0  0  0  0
   32.9907   12.5600   22.8408 C   0  0  1  0  0  0  0  0  0  0  0  0
   34.5122   11.3430   24.0420 C   0  0  0  0  0  0  0  0  0  0  0  0
   32.4385   13.5006   21.9264 F   0  0  0  0  0  0  0  0  0  0  0  0
   31.9041   11.5472   23.1330 C   0  0  0  0  0  0  0  0  0  0  0  0
   33.5052   10.4877   24.2890 C   0  0  2  0  0  0  0  0  0  0  0  0
   33.8876    9.2961   25.1136 N   0  0  0  0  0  0  0  0  0  0  0  0
   32.2860   10.5591   23.8058 C   0  0  2  0  0  0  0  0  0  0  0  0
   33.4216    8.1064   24.8041 C   0  0  2  0  0  0  0  0  0  0  0  0
   32.0218    8.1688   24.5729 C   0  0  0  0  0  0  0  0  0  0  0  0
   31.4819    9.3683   24.0276 N   0  0  0  0  0  0  0  0  0  0  0  0
   30.5532   11.8523   22.5391 C   0  0  0  0  0  0  0  0  0  0  0  0
   31.1644    7.1022   24.6975 O   0  0  0  0  0  0  0  0  0  0  0  0
   33.6490    7.0666   25.8983 C   0  0  2  0  0  0  0  0  0  0  0  0
   29.9782   11.1039   21.7547 O   0  0  0  0  0  0  0  0  0  0  0  0
   33.2624    7.4884   27.2068 N   0  0  0  0  0  0  0  0  0  0  0  0
   29.8997   12.9475   22.7759 O   0  0  0  0  0  0  0  0  0  0  0  0
   35.0681    6.6157   25.9350 O   0  0  0  0  0  0  0  0  0  0  0  0
   32.1322    7.2513   27.7961 C   0  0  2  0  0  0  0  0  0  0  0  0
   31.1250    7.9486   28.0264 O   0  0  0  0  0  0  0  0  0  0  0  0
   30.4095    8.7951   27.0535 C   0  0  0  0  0  0  0  0  0  0  0  0
   28.4725   12.9902   22.1320 C   0  0  0  0  0  0  0  0  0  0  0  0
   32.1961    6.4191   29.0347 C   0  0  0  0  0  0  0  0  0  0  0  0
   32.7600    7.0267   30.0582 O   0  0  0  0  0  0  0  0  0  0  0  0
   29.9303   10.0723   27.7537 C   0  0  0  0  0  0  0  0  0  0  0  0
  1  2  1  0
  1  3  1  0
  2  4  1  6
  2  5  1  0
  6  3  1  6
  6  7  1  0
  5  8  1  0
  6  8  1  0
  9  7  1  1
  9 10  1  0
  8 11  1  6
 10 11  1  0
  5 12  1  0
 10 13  2  0
  9 14  1  0
 12 15  2  0
 14 16  1  0
 12 17  1  0
 14 18  1  1
 16 19  1  0
 19 20  1  0
 20 21  1  0
 17 22  1  0
 19 23  1  1
 23 24  1  0
 21 25  1  0
M  END
$$$$
81
     RDKit          3D

 25 27  0  0  0  0  0  0  0  0999 V2000
   29.2592   12.1480   22.0997 C   0  0  0  0  0  0  0  0  0  0  0  0
   29.6030   11.4340   23.1202 N   0  0  0  0  0  0  0  0  0  0  0  0
   30.1466   12.8003   21.2957 C   0  0  0  0  0  0  0  0  0  0  0  0
   30.9133   11.3828   23.4912 C   0  0  1  0  0  0  0  0  0  0  0  0
   31.3706   10.6492   24.6187 N   0  0  0  0  0  0  0  0  0  0  0  0
   31.8974   12.0160   22.6900 C   0  0  0  0  0  0  0  0  0  0  0  0
   31.4897   12.7545   21.5715 C   0  0  0  0  0  0  0  0  0  0  0  0
   33.1952   11.6697   23.2709 C   0  0  1  0  0  0  0  0  0  0  0  0
   34.4293   12.0810   22.8999 O   0  0  0  0  0  0  0  0  0  0  0  0
   32.8225   10.8518   24.4693 C   0  0  0  0  0  0  0  0  0  0  0  0
   30.6611   10.2366   25.6713 C   0  0  0  0  0  0  0  0  0  0  0  0
   35.4410   11.3691   23.5932 C   0  0  0  0  0  0  0  0  0  0  0  0
   31.0490    9.0346   26.2460 C   0  0  0  0  0  0  0  0  0  0  0  0
   29.3551   10.5784   25.6963 O   0  0  0  0  0  0  0  0  0  0  0  0
   32.1162    8.2201   25.8543 C   0  0  2  0  0  0  0  0  0  0  0  0
   32.5038    8.0282   24.6066 O   0  0  0  0  0  0  0  0  0  0  0  0
   33.1193    6.8546   24.2234 C   0  0  2  0  0  0  0  0  0  0  0  0
   32.4226    7.0318   26.6704 O   0  0  0  0  0  0  0  0  0  0  0  0
   33.7171    6.6150   26.9751 C   0  0  1  0  0  0  0  0  0  0  0  0
   34.1696    6.4672   25.3575 C   0  0  1  0  0  0  0  0  0  0  0  0
   34.2764    7.7037   27.6952 C   0  0  0  0  0  0  0  0  0  0  0  0
   34.8009    5.2426   25.0250 O   0  0  0  0  0  0  0  0  0  0  0  0
   30.4213    8.6509   27.4245 C   0  0  0  0  0  0  0  0  0  0  0  0
   33.9085    6.9520   22.9462 C   0  0  0  0  0  0  0  0  0  0  0  0
   34.9587    7.8288   23.0763 O   0  0  0  0  0  0  0  0  0  0  0  0
  1  2  1  0
  1  3  1  0
  4  2  1  6
  4  5  1  0
  4  6  1  0
  3  7  1  0
  6  7  1  0
  6  8  1  0
  8  9  1  1
  5 10  1  0
  8 10  1  0
  5 11  1  0
  9 12  1  0
 11 13  1  0
 11 14  2  0
 15 13  1  6
 15 16  1  0
 16 17  1  0
 15 18  1  0
 18 19  1  0
 17 20  1  0
 19 20  1  0
 19 21  1  1
 20 22  1  6
 13 23  2  0
 17 24  1  6
 24 25  1  0
M  END
$$$$
82
     RDKit          3D

 25 29  0  0  0  0  0  0  0  0999 V2000
   34.2800   12.5589   23.2846 C   0  0  0  0  0  0  0  0  0  0  0  0
   34.4152   11.3380   23.7858 C   0  0  0  0  0  0  0  0  0  0  0  0
   33.4984   10.4098   23.7437 C   0  0  1  0  0  0  0  0  0  0  0  0
   33.6876    9.0287   24.3144 C   0  0  2  0  0  0  0  0  0  0  0  0
   32.7339    8.2887   24.8895 N   0  0  0  0  0  0  0  0  0  0  0  0
   32.0946   10.6836   23.4931 C   0  0  0  0  0  0  0  0  0  0  0  0
   34.9322    8.3759   24.3812 N   0  0  0  0  0  0  0  0  0  0  0  0
   31.3086    8.6655   24.7277 C   0  0  0  0  0  0  0  0  0  0  0  0
   32.7743    6.9931   25.6519 C   0  0  0  0  0  0  0  0  0  0  0  0
   30.3477    7.9431   25.3038 O   0  0  0  0  0  0  0  0  0  0  0  0
   31.0086    9.7818   23.8947 C   0  0  1  0  0  0  0  0  0  0  0  0
   32.9089   12.8907   22.8499 C   0  0  0  0  0  0  0  0  0  0  0  0
   33.9119    7.2705   26.6830 C   0  0  2  0  0  0  0  0  0  0  0  0
   35.0046    6.9810   24.2592 C   0  0  0  0  0  0  0  0  0  0  0  0
   35.0630    6.7345   25.8021 C   0  0  0  0  0  0  0  0  0  0  0  0
   31.8752   11.9245   22.8511 C   0  0  2  0  0  0  0  0  0  0  0  0
   29.6839   10.1481   23.6922 C   0  0  0  0  0  0  0  0  0  0  0  0
   29.5468   11.3532   22.8981 N   0  0  0  0  0  0  0  0  0  0  0  0
   30.4940   12.1207   22.5169 C   0  0  0  0  0  0  0  0  0  0  0  0
   30.0625   13.2947   21.5968 C   0  0  0  0  0  0  0  0  0  0  0  0
   33.4439    6.4463   27.8234 N   0  0  0  0  0  0  0  0  0  0  0  0
   32.4435    7.0111   28.6834 C   0  0  0  0  0  0  0  0  0  0  0  0
   34.4358    6.0349   28.8407 C   0  0  0  0  0  0  0  0  0  0  0  0
   33.9309    5.4084   29.8839 C   0  0  0  0  0  0  0  0  0  0  0  0
   32.4639    6.1301   29.9163 C   0  0  0  0  0  0  0  0  0  0  0  0
  1  2  1  0
  3  2  1  1
  3  4  1  0
  4  5  1  0
  3  6  1  0
  4  7  1  1
  5  8  1  0
  5  9  1  0
  8 10  2  0
  6 11  1  0
  8 11  1  0
  1 12  1  0
  9 13  1  0
  7 14  1  0
 13 15  1  0
 14 15  1  0
  6 16  1  0
 16 12  1  1
 11 17  1  1
 17 18  1  0
 16 19  1  0
 18 19  1  0
 19 20  1  0
 13 21  1  1
 21 22  1  0
 21 23  1  0
 23 24  1  0
 22 25  1  0
 24 25  1  0
M  END
$$$$
83
     RDKit          3D

 25 26  0  0  0  0  0  0  0  0999 V2000
   28.4769   10.5527   25.4471 O   0  0  0  0  0  0  0  0  0  0  0  0
   29.7668   10.1608   25.5102 C   0  0  2  0  0  0  0  0  0  0  0  0
   30.2762    9.5843   26.6820 C   0  0  1  0  0  0  0  0  0  0  0  0
   30.6425   10.5906   24.5262 C   0  0  1  0  0  0  0  0  0  0  0  0
   29.3977    9.1726   27.7744 O   0  0  0  0  0  0  0  0  0  0  0  0
   31.9640   10.1836   24.5978 C   0  0  1  0  0  0  0  0  0  0  0  0
   30.1072   11.3205   23.4876 C   0  0  0  0  0  0  0  0  0  0  0  0
   31.5128    8.8777   26.6746 C   0  0  1  0  0  0  0  0  0  0  0  0
   30.9772   11.7876   22.4611 O   0  0  0  0  0  0  0  0  0  0  0  0
   32.3977    9.3213   25.5961 C   0  0  0  0  0  0  0  0  0  0  0  0
   33.7276    8.7912   25.6474 N   0  0  0  0  0  0  0  0  0  0  0  0
   30.4557   12.5595   21.4378 C   0  0  0  0  0  0  0  0  0  0  0  0
   31.8342    8.0660   27.7165 O   0  0  0  0  0  0  0  0  0  0  0  0
   32.5233    6.8838   27.6271 C   0  0  0  0  0  0  0  0  0  0  0  0
   33.5460    6.7395   27.0461 C   0  0  1  0  0  0  0  0  0  0  0  0
   31.8590    5.9697   28.4665 O   0  0  0  0  0  0  0  0  0  0  0  0
   28.9652   11.7879   23.4954 O   0  0  0  0  0  0  0  0  0  0  0  0
   32.8378   10.5446   23.5521 O   0  0  0  0  0  0  0  0  0  0  0  0
   34.0585    7.4991   25.7335 C   0  0  0  0  0  0  0  0  0  0  0  0
   33.7456   11.7005   23.6815 C   0  0  0  0  0  0  0  0  0  0  0  0
   34.5153    6.8692   24.7368 O   0  0  0  0  0  0  0  0  0  0  0  0
   34.4797   11.8413   22.4834 C   0  0  0  0  0  0  0  0  0  0  0  0
   34.7323    6.7254   27.9736 C   0  0  0  0  0  0  0  0  0  0  0  0
   34.4995    5.6426   29.0377 C   0  0  0  0  0  0  0  0  0  0  0  0
   35.6221    4.6649   29.1049 C   0  0  0  0  0  0  0  0  0  0  0  0
  2  1  1  1
  2  3  1  0
  2  4  1  0
  3  5  1  6
  4  6  1  0
  4  7  1  6
  3  8  1  0
  7  9  1  0
  6 10  1  0
  8 10  1  0
 10 11  1  0
  9 12  1  0
  8 13  1  1
 13 14  1  0
 14 15  1  0
 14 16  2  0
  7 17  2  0
  6 18  1  6
 11 19  1  0
 15 19  1  0
 18 20  1  0
 19 21  2  0
 20 22  1  0
 15 23  1  1
 23 24  1  0
 24 25  1  0
M  END
$$$$
84
     RDKit          3D

 25 29  0  0  0  0  0  0  0  0999 V2000
   29.3919   11.6711   22.3202 N   0  0  0  0  0  0  0  0  0  0  0  0
   29.9093   11.2007   23.3313 C   0  0  2  0  0  0  0  0  0  0  0  0
   31.3391   11.4615   23.3786 C   0  0  0  0  0  0  0  0  0  0  0  0
   30.0006   12.5610   21.4541 C   0  0  0  0  0  0  0  0  0  0  0  0
   32.0211   12.2673   22.4984 C   0  0  1  0  0  0  0  0  0  0  0  0
   31.2784   12.8441   21.4500 C   0  0  0  0  0  0  0  0  0  0  0  0
   33.4611   12.6205   22.6363 C   0  0  0  0  0  0  0  0  0  0  0  0
   29.4247   10.4269   24.3038 C   0  0  2  0  0  0  0  0  0  0  0  0
   28.0983   10.2523   24.4737 O   0  0  0  0  0  0  0  0  0  0  0  0
   30.2645    9.8721   25.3320 C   0  0  1  0  0  0  0  0  0  0  0  0
   32.1283   10.8687   24.4648 C   0  0  2  0  0  0  0  0  0  0  0  0
   33.5826   11.0369   24.4631 C   0  0  0  0  0  0  0  0  0  0  0  0
   34.1158   12.0112   23.5829 C   0  0  0  0  0  0  0  0  0  0  0  0
   31.5876   10.0988   25.4264 C   0  0  2  0  0  0  0  0  0  0  0  0
   29.5155    9.4033   26.5673 O   0  0  0  0  0  0  0  0  0  0  0  0
   30.2432    8.8521   27.6206 C   0  0  1  0  0  0  0  0  0  0  0  0
   29.9896    7.6828   27.9464 C   0  0  0  0  0  0  0  0  0  0  0  0
   31.2308    6.9107   27.5330 O   0  0  0  0  0  0  0  0  0  0  0  0
   32.4457    7.4551   27.6688 C   0  0  1  0  0  0  0  0  0  0  0  0
   33.5320    6.7653   27.9928 C   0  0  0  0  0  0  0  0  0  0  0  0
   32.2452    8.8432   27.2955 C   0  0  1  0  0  0  0  0  0  0  0  0
   32.4230    9.3402   26.3326 C   0  0  0  0  0  0  0  0  0  0  0  0
   31.2879    9.4795   28.0814 O   0  0  0  0  0  0  0  0  0  0  0  0
   33.8875    5.6276   27.6876 O   0  0  0  0  0  0  0  0  0  0  0  0
   34.3989    4.6006   28.6326 C   0  0  0  0  0  0  0  0  0  0  0  0
  2  1  1  6
  2  3  1  0
  1  4  1  0
  3  5  1  0
  4  6  1  0
  5  6  1  1
  5  7  1  0
  2  8  1  0
  8  9  1  1
  8 10  1  0
  3 11  1  0
 11 12  1  6
  7 13  1  0
 12 13  1  0
 10 14  1  0
 11 14  1  0
 10 15  1  1
 15 16  1  0
 16 17  1  6
 17 18  1  0
 18 19  1  0
 19 20  1  6
 19 21  1  0
 14 22  1  6
 21 22  1  6
 16 23  1  0
 21 23  1  0
 20 24  1  0
 24 25  1  0
M  END
$$$$
85
     RDKit          3D

 25 27  0  0  0  0  0  0  0  0999 V2000
   30.0228   12.5864   21.7485 C   0  0  0  0  0  0  0  0  0  0  0  0
   31.3032   12.6102   21.9838 C   0  0  2  0  0  0  0  0  0  0  0  0
   32.1983   13.2778   21.2181 C   0  0  0  0  0  0  0  0  0  0  0  0
   29.3852   13.2865   20.7299 N   0  0  0  0  0  0  0  0  0  0  0  0
   29.4601   11.6804   22.7353 N   0  0  0  0  0  0  0  0  0  0  0  0
   30.3171   11.1450   23.5183 C   0  0  1  0  0  0  0  0  0  0  0  0
   31.6067   11.7514   23.1229 C   0  0  2  0  0  0  0  0  0  0  0  0
   30.2971   10.3350   24.6534 C   0  0  1  0  0  0  0  0  0  0  0  0
   32.9142   11.6354   23.8681 C   0  0  0  0  0  0  0  0  0  0  0  0
   31.5242    9.9024   25.2399 C   0  0  2  0  0  0  0  0  0  0  0  0
   29.0821   10.4793   25.3301 C   0  0  0  0  0  0  0  0  0  0  0  0
   31.3689    8.9865   26.3303 C   0  0  1  0  0  0  0  0  0  0  0  0
   29.0221    9.6458   26.5654 C   0  0  0  0  0  0  0  0  0  0  0  0
   32.7522   10.7202   25.0442 C   0  0  0  0  0  0  0  0  0  0  0  0
   32.4725    8.2891   26.8110 O   0  0  0  0  0  0  0  0  0  0  0  0
   27.8556    9.5342   27.2850 O   0  0  0  0  0  0  0  0  0  0  0  0
   30.1456    8.9162   27.0074 C   0  0  0  0  0  0  0  0  0  0  0  0
   33.2539    7.5673   25.9701 C   0  0  0  0  0  0  0  0  0  0  0  0
   30.0673    8.0125   28.1615 O   0  0  0  0  0  0  0  0  0  0  0  0
   34.3634    6.9555   26.7096 C   0  0  0  0  0  0  0  0  0  0  0  0
   33.2663    7.4216   24.6489 O   0  0  0  0  0  0  0  0  0  0  0  0
   34.1153    7.0689   28.1402 C   0  0  0  0  0  0  0  0  0  0  0  0
   34.4651    5.7905   28.8666 C   0  0  0  0  0  0  0  0  0  0  0  0
   33.6204    5.2867   29.7667 C   0  0  0  0  0  0  0  0  0  0  0  0
   32.2389    5.4658   29.5553 C   0  0  0  0  0  0  0  0  0  0  0  0
  1  2  1  0
  2  3  1  6
  1  4  1  0
  1  5  1  0
  6  5  1  1
  2  7  1  0
  6  7  1  0
  6  8  1  0
  7  9  1  1
  8 10  1  0
  8 11  1  1
 10 12  1  0
 11 13  1  0
  9 14  1  0
 10 14  1  1
 12 15  1  1
 13 16  1  0
 12 17  1  0
 13 17  1  0
 15 18  1  0
 17 19  1  0
 18 20  1  0
 18 21  2  0
 20 22  1  0
 22 23  1  0
 23 24  1  0
 24 25  1  0
M  END
$$$$
86
     RDKit          3D

 25 27  0  0  0  0  0  0  0  0999 V2000
   30.6804   12.8394   21.1336 C   0  0  0  0  0  0  0  0  0  0  0  0
   31.8325   12.6790   21.7882 C   0  0  0  0  0  0  0  0  0  0  0  0
   32.0421   12.0051   22.9915 C   0  0  0  0  0  0  0  0  0  0  0  0
   29.5080   12.3058   21.7956 C   0  0  0  0  0  0  0  0  0  0  0  0
   28.3067   12.4827   21.1951 O   0  0  0  0  0  0  0  0  0  0  0  0
   29.6785   11.5728   23.0289 C   0  0  0  0  0  0  0  0  0  0  0  0
   28.5986   11.0410   23.6541 N   0  0  0  0  0  0  0  0  0  0  0  0
   30.9611   11.4497   23.5887 C   0  0  0  0  0  0  0  0  0  0  0  0
   33.6774   11.9689   23.5887 Cl  0  0  0  0  0  0  0  0  0  0  0  0
   28.7887   10.4851   24.8387 C   0  0  0  0  0  0  0  0  0  0  0  0
   30.0968   10.2841   25.3522 C   0  0  1  0  0  0  0  0  0  0  0  0
   31.0228   10.7016   24.8139 C   0  0  0  0  0  0  0  0  0  0  0  0
   30.1789    9.5121   26.7917 C   0  0  0  0  0  0  0  0  0  0  0  0
   29.5564    9.9170   27.7388 O   0  0  0  0  0  0  0  0  0  0  0  0
   31.1336    8.5601   26.9205 N   0  0  0  0  0  0  0  0  0  0  0  0
   31.3440    7.8511   28.0715 C   0  0  0  0  0  0  0  0  0  0  0  0
   32.3320    6.7394   27.9483 C   0  0  1  0  0  0  0  0  0  0  0  0
   33.3106    6.9786   27.0796 O   0  0  0  0  0  0  0  0  0  0  0  0
   32.8795    6.2791   29.2993 C   0  0  1  0  0  0  0  0  0  0  0  0
   34.5710    6.4271   27.6827 C   0  0  1  0  0  0  0  0  0  0  0  0
   34.2481    5.9258   28.9294 C   0  0  2  0  0  0  0  0  0  0  0  0
   34.6600    4.5602   28.7106 O   0  0  0  0  0  0  0  0  0  0  0  0
   32.6875    7.3404   30.1855 O   0  0  0  0  0  0  0  0  0  0  0  0
   34.9578    5.6867   26.5111 C   0  0  0  0  0  0  0  0  0  0  0  0
   35.1023    5.9513   25.3072 O   0  0  0  0  0  0  0  0  0  0  0  0
  1  2  1  0
  2  3  1  0
  1  4  1  0
  4  5  1  0
  4  6  1  0
  6  7  1  0
  3  8  1  0
  6  8  1  0
  3  9  1  0
  7 10  1  0
 10 11  1  0
  8 12  1  0
 11 12  1  0
 11 13  1  1
 13 14  2  0
 13 15  1  0
 15 16  1  0
 17 16  1  1
 17 18  1  0
 17 19  1  0
 18 20  1  0
 19 21  1  0
 20 21  1  0
 21 22  1  6
 19 23  1  1
 20 24  1  6
 24 25  1  0
M  END
$$$$
87
     RDKit          3D

 25 27  0  0  0  0  0  0  0  0999 V2000
   34.2800   12.5589   23.2846 C   0  0  0  0  0  0  0  0  0  0  0  0
   34.4152   11.3380   23.7858 C   0  0  0  0  0  0  0  0  0  0  0  0
   33.4984   10.4098   23.7437 C   0  0  1  0  0  0  0  0  0  0  0  0
   33.6876    9.0287   24.3144 C   0  0  2  0  0  0  0  0  0  0  0  0
   32.7339    8.2887   24.8895 N   0  0  0  0  0  0  0  0  0  0  0  0
   32.0946   10.6836   23.4931 C   0  0  1  0  0  0  0  0  0  0  0  0
   34.9322    8.3759   24.3812 N   0  0  0  0  0  0  0  0  0  0  0  0
   31.3086    8.6655   24.7277 C   0  0  0  0  0  0  0  0  0  0  0  0
   32.7743    6.9931   25.6519 C   0  0  0  0  0  0  0  0  0  0  0  0
   30.3477    7.9431   25.3038 O   0  0  0  0  0  0  0  0  0  0  0  0
   33.9463    6.9690   26.3220 O   0  0  0  0  0  0  0  0  0  0  0  0
   31.0259    9.8230   23.9466 N   0  0  0  0  0  0  0  0  0  0  0  0
   31.8586   11.9476   22.9704 C   0  0  1  0  0  0  0  0  0  0  0  0
   34.0233    6.2213   27.4559 C   0  0  1  0  0  0  0  0  0  0  0  0
   34.8966    5.4115   27.8451 C   0  0  0  0  0  0  0  0  0  0  0  0
   35.0801    4.7694   29.0678 C   0  0  2  0  0  0  0  0  0  0  0  0
   32.9004   12.9272   22.8022 C   0  0  0  0  0  0  0  0  0  0  0  0
   30.4933   12.2448   22.3480 C   0  0  0  0  0  0  0  0  0  0  0  0
   36.1961    3.8043   29.2521 C   0  0  0  0  0  0  0  0  0  0  0  0
   29.5634   12.6799   23.1724 O   0  0  0  0  0  0  0  0  0  0  0  0
   30.2076   12.7179   21.1108 C   0  0  0  0  0  0  0  0  0  0  0  0
   33.0821    6.4735   28.5501 C   0  0  0  0  0  0  0  0  0  0  0  0
   34.1718    4.9669   30.0514 C   0  0  0  0  0  0  0  0  0  0  0  0
   33.1486    5.8854   29.6800 C   0  0  0  0  0  0  0  0  0  0  0  0
   31.9141    7.4421   28.3890 C   0  0  0  0  0  0  0  0  0  0  0  0
  1  2  1  0
  3  2  1  1
  3  4  1  0
  4  5  1  0
  3  6  1  0
  4  7  1  1
  5  8  1  0
  5  9  1  0
  8 10  2  0
  9 11  1  0
  6 12  1  1
  8 12  1  0
  6 13  1  0
 14 11  1  1
 14 15  1  0
 15 16  1  0
  1 17  1  0
 13 17  1  0
 13 18  1  6
 16 19  1  6
 18 20  1  0
 18 21  2  0
 14 22  1  0
 16 23  1  0
 22 24  1  0
 23 24  1  0
 22 25  1  0
M  END
$$$$
88
     RDKit          3D

 25 29  0  0  0  0  0  0  0  0999 V2000
   29.3919   11.6711   22.3202 N   0  0  0  0  0  0  0  0  0  0  0  0
   29.9093   11.2007   23.3313 C   0  0  2  0  0  0  0  0  0  0  0  0
   31.3391   11.4615   23.3786 C   0  0  0  0  0  0  0  0  0  0  0  0
   30.0006   12.5610   21.4541 C   0  0  0  0  0  0  0  0  0  0  0  0
   32.0211   12.2673   22.4984 C   0  0  1  0  0  0  0  0  0  0  0  0
   31.2784   12.8441   21.4500 C   0  0  0  0  0  0  0  0  0  0  0  0
   33.4611   12.6205   22.6363 C   0  0  0  0  0  0  0  0  0  0  0  0
   29.4247   10.4269   24.3038 C   0  0  2  0  0  0  0  0  0  0  0  0
   28.0983   10.2523   24.4737 O   0  0  0  0  0  0  0  0  0  0  0  0
   30.2645    9.8721   25.3320 C   0  0  1  0  0  0  0  0  0  0  0  0
   32.1283   10.8687   24.4648 C   0  0  2  0  0  0  0  0  0  0  0  0
   33.5826   11.0369   24.4631 C   0  0  0  0  0  0  0  0  0  0  0  0
   34.1158   12.0112   23.5829 C   0  0  0  0  0  0  0  0  0  0  0  0
   31.5876   10.0988   25.4264 C   0  0  2  0  0  0  0  0  0  0  0  0
   29.5155    9.4033   26.5673 O   0  0  0  0  0  0  0  0  0  0  0  0
   30.2432    8.8521   27.6206 C   0  0  1  0  0  0  0  0  0  0  0  0
   29.9896    7.6828   27.9464 C   0  0  0  0  0  0  0  0  0  0  0  0
   31.2308    6.9107   27.5330 O   0  0  0  0  0  0  0  0  0  0  0  0
   32.4457    7.4551   27.6688 C   0  0  1  0  0  0  0  0  0  0  0  0
   33.5320    6.7653   27.9928 C   0  0  0  0  0  0  0  0  0  0  0  0
   32.2452    8.8432   27.2955 C   0  0  1  0  0  0  0  0  0  0  0  0
   32.4230    9.3402   26.3326 C   0  0  0  0  0  0  0  0  0  0  0  0
   34.1041    6.9704   29.2289 O   0  0  0  0  0  0  0  0  0  0  0  0
   31.3016    9.3402   28.1242 O   0  0  0  0  0  0  0  0  0  0  0  0
   34.0870    5.7927   27.3718 O   0  0  0  0  0  0  0  0  0  0  0  0
  2  1  1  6
  2  3  1  0
  1  4  1  0
  3  5  1  0
  4  6  1  0
  5  6  1  1
  5  7  1  0
  2  8  1  0
  8  9  1  1
  8 10  1  0
  3 11  1  0
 11 12  1  6
  7 13  1  0
 12 13  1  0
 10 14  1  0
 11 14  1  0
 10 15  1  1
 15 16  1  0
 16 17  1  6
 17 18  1  0
 18 19  1  0
 19 20  1  6
 19 21  1  0
 14 22  1  6
 21 22  1  6
 20 23  1  0
 16 24  1  0
 21 24  1  0
 20 25  2  0
M  END
$$$$
89
     RDKit          3D

 25 28  0  0  0  0  0  0  0  0999 V2000
   30.0228   12.5864   21.7485 C   0  0  1  0  0  0  0  0  0  0  0  0
   31.3032   12.6102   21.9838 C   0  0  0  0  0  0  0  0  0  0  0  0
   29.1866   11.8122   22.6172 N   0  0  0  0  0  0  0  0  0  0  0  0
   29.3055   13.2587   20.8077 N   0  0  0  0  0  0  0  0  0  0  0  0
   31.7920   11.9050   22.9669 C   0  0  1  0  0  0  0  0  0  0  0  0
   29.7558   11.1147   23.6163 C   0  0  1  0  0  0  0  0  0  0  0  0
   31.1122   11.1273   23.8105 C   0  0  0  0  0  0  0  0  0  0  0  0
   28.9019   10.3721   24.5736 N   0  0  0  0  0  0  0  0  0  0  0  0
   33.3419   11.8800   23.1287 C   0  0  0  0  0  0  0  0  0  0  0  0
   31.5018   10.2803   24.9496 C   0  0  0  0  0  0  0  0  0  0  0  0
   29.5175   10.0672   25.7333 C   0  0  0  0  0  0  0  0  0  0  0  0
   30.7496    9.8358   25.8594 C   0  0  0  0  0  0  0  0  0  0  0  0
   31.2168    9.1112   27.0353 C   0  0  0  0  0  0  0  0  0  0  0  0
   34.0849   11.0395   22.5549 O   0  0  0  0  0  0  0  0  0  0  0  0
   33.7033   13.0801   23.5985 O   0  0  0  0  0  0  0  0  0  0  0  0
   30.3589    8.9097   28.0352 N   0  0  0  0  0  0  0  0  0  0  0  0
   32.3872    8.3517   27.0410 N   0  0  0  0  0  0  0  0  0  0  0  0
   30.7611    8.0002   28.7954 N   0  0  0  0  0  0  0  0  0  0  0  0
   33.4817    8.1933   26.3222 C   0  0  0  0  0  0  0  0  0  0  0  0
   34.3094    7.1444   26.7421 C   0  0  0  0  0  0  0  0  0  0  0  0
   32.2368    7.6672   28.3606 C   0  0  0  0  0  0  0  0  0  0  0  0
   33.0844    6.8082   28.9376 C   0  0  0  0  0  0  0  0  0  0  0  0
   34.2040    6.5337   28.0843 C   0  0  0  0  0  0  0  0  0  0  0  0
   35.2111    5.6152   28.5384 O   0  0  0  0  0  0  0  0  0  0  0  0
   35.0845    4.9984   29.7495 C   0  0  0  0  0  0  0  0  0  0  0  0
  1  2  1  0
  1  3  1  0
  1  4  1  1
  2  5  1  0
  6  3  1  1
  5  7  1  0
  6  7  1  0
  6  8  1  0
  5  9  1  6
  7 10  1  0
  8 11  1  0
 10 12  1  0
 11 12  1  0
 12 13  1  0
  9 14  1  0
  9 15  2  0
 13 16  2  0
 13 17  1  0
 16 18  1  0
 17 19  1  0
 19 20  1  0
 17 21  1  0
 18 21  2  0
 21 22  1  0
 20 23  1  0
 22 23  1  0
 23 24  1  0
 24 25  1  0
M  END
$$$$
9
     RDKit          3D

 17 18  0  0  0  0  0  0  0  0999 V2000
   29.2737   10.4558   23.8011 C   0  0  1  0  0  0  0  0  0  0  0  0
   30.2888   10.0258   24.5823 C   0  0  2  0  0  0  0  0  0  0  0  0
   30.1677    9.2672   25.7047 O   0  0  0  0  0  0  0  0  0  0  0  0
   31.1220    9.3000   26.8409 C   0  0  0  0  0  0  0  0  0  0  0  0
   30.5822    8.5439   27.9081 C   0  0  0  0  0  0  0  0  0  0  0  0
   30.6037    7.1804   27.6019 O   0  0  0  0  0  0  0  0  0  0  0  0
   31.5734   10.6328   24.2512 C   0  0  1  0  0  0  0  0  0  0  0  0
   27.9766    9.9894   24.2549 O   0  0  0  0  0  0  0  0  0  0  0  0
   32.8063   10.2844   24.9673 O   0  0  0  0  0  0  0  0  0  0  0  0
   31.6377   11.4567   23.1013 C   0  0  1  0  0  0  0  0  0  0  0  0
   29.3657   11.4505   22.8206 C   0  0  0  0  0  0  0  0  0  0  0  0
   30.7311   11.7947   22.5270 C   0  0  1  0  0  0  0  0  0  0  0  0
   33.0414   12.1087   22.7148 C   0  0  1  0  0  0  0  0  0  0  0  0
   31.0852   12.7934   21.3727 C   0  0  2  0  0  0  0  0  0  0  0  0
   30.2843   13.2575   20.5018 O   0  0  0  0  0  0  0  0  0  0  0  0
   34.1541   11.9646   23.1424 C   0  0  0  0  0  0  0  0  0  0  0  0
   32.4478   12.8781   21.4724 C   0  0  0  0  0  0  0  0  0  0  0  0
  1  2  1  0
  2  3  1  1
  3  4  1  0
  4  5  1  0
  5  6  1  0
  2  7  1  0
  1  8  1  1
  7  9  1  6
  7 10  1  0
  1 11  1  0
 10 12  1  0
 12 11  1  1
 10 13  1  1
 12 14  1  0
 14 15  1  6
 13 16  1  6
 13 17  1  0
 14 17  1  0
M  END
$$$$
90
     RDKit          3D

 25 28  0  0  0  0  0  0  0  0999 V2000
   30.6804   12.8394   21.1336 C   0  0  0  0  0  0  0  0  0  0  0  0
   31.8325   12.6790   21.7882 C   0  0  0  0  0  0  0  0  0  0  0  0
   32.0421   12.0051   22.9915 C   0  0  0  0  0  0  0  0  0  0  0  0
   29.5080   12.3058   21.7956 C   0  0  0  0  0  0  0  0  0  0  0  0
   28.3067   12.4827   21.1951 O   0  0  0  0  0  0  0  0  0  0  0  0
   29.6785   11.5728   23.0289 C   0  0  0  0  0  0  0  0  0  0  0  0
   28.5986   11.0410   23.6541 N   0  0  0  0  0  0  0  0  0  0  0  0
   30.9611   11.4497   23.5887 C   0  0  0  0  0  0  0  0  0  0  0  0
   33.6774   11.9689   23.5887 Cl  0  0  0  0  0  0  0  0  0  0  0  0
   28.7887   10.4851   24.8387 C   0  0  0  0  0  0  0  0  0  0  0  0
   30.0968   10.2841   25.3522 C   0  0  1  0  0  0  0  0  0  0  0  0
   31.0228   10.7016   24.8139 C   0  0  0  0  0  0  0  0  0  0  0  0
   30.1789    9.5121   26.7917 C   0  0  0  0  0  0  0  0  0  0  0  0
   29.5564    9.9170   27.7388 O   0  0  0  0  0  0  0  0  0  0  0  0
   31.1336    8.5601   26.9205 N   0  0  0  0  0  0  0  0  0  0  0  0
   31.3440    7.8511   28.0715 C   0  0  0  0  0  0  0  0  0  0  0  0
   32.3320    6.7394   27.9483 C   0  0  2  0  0  0  0  0  0  0  0  0
   32.5557    5.9718   29.1403 C   0  0  2  0  0  0  0  0  0  0  0  0
   33.1363    6.6004   26.9316 O   0  0  0  0  0  0  0  0  0  0  0  0
   34.2150    5.8475   27.4409 C   0  0  0  0  0  0  0  0  0  0  0  0
   35.1571    5.4101   26.7432 O   0  0  0  0  0  0  0  0  0  0  0  0
   34.0591    5.6518   28.8760 C   0  0  2  0  0  0  0  0  0  0  0  0
   34.1842    4.2992   29.4858 C   0  0  0  0  0  0  0  0  0  0  0  0
   33.4059    4.2494   30.7547 C   0  0  0  0  0  0  0  0  0  0  0  0
   32.2094    5.2778   30.4205 C   0  0  0  0  0  0  0  0  0  0  0  0
  1  2  1  0
  2  3  1  0
  1  4  1  0
  4  5  1  0
  4  6  1  0
  6  7  1  0
  3  8  1  0
  6  8  1  0
  3  9  1  0
  7 10  1  0
 10 11  1  0
  8 12  1  0
 11 12  1  0
 11 13  1  1
 13 14  2  0
 13 15  1  0
 15 16  1  0
 17 16  1  1
 17 18  1  0
 17 19  1  0
 19 20  1  0
 20 21  2  0
 18 22  1  0
 20 22  1  0
 22 23  1  6
 23 24  1  0
 18 25  1  6
 24 25  1  0
M  END
$$$$
91
     RDKit          3D

 26 30  0  0  0  0  0  0  0  0999 V2000
   29.3919   11.6711   22.3202 N   0  0  0  0  0  0  0  0  0  0  0  0
   29.9093   11.2007   23.3313 C   0  0  2  0  0  0  0  0  0  0  0  0
   31.3391   11.4615   23.3786 C   0  0  0  0  0  0  0  0  0  0  0  0
   30.0006   12.5610   21.4541 C   0  0  0  0  0  0  0  0  0  0  0  0
   32.0211   12.2673   22.4984 C   0  0  1  0  0  0  0  0  0  0  0  0
   31.2784   12.8441   21.4500 C   0  0  0  0  0  0  0  0  0  0  0  0
   33.4611   12.6205   22.6363 C   0  0  0  0  0  0  0  0  0  0  0  0
   29.4247   10.4269   24.3038 C   0  0  2  0  0  0  0  0  0  0  0  0
   28.0983   10.2523   24.4737 O   0  0  0  0  0  0  0  0  0  0  0  0
   30.2645    9.8721   25.3320 C   0  0  1  0  0  0  0  0  0  0  0  0
   32.1283   10.8687   24.4648 C   0  0  2  0  0  0  0  0  0  0  0  0
   33.5826   11.0369   24.4631 C   0  0  0  0  0  0  0  0  0  0  0  0
   34.1158   12.0112   23.5829 C   0  0  0  0  0  0  0  0  0  0  0  0
   31.5876   10.0988   25.4264 C   0  0  2  0  0  0  0  0  0  0  0  0
   29.5155    9.4033   26.5673 O   0  0  0  0  0  0  0  0  0  0  0  0
   30.2432    8.8521   27.6206 C   0  0  1  0  0  0  0  0  0  0  0  0
   29.9896    7.6828   27.9464 C   0  0  0  0  0  0  0  0  0  0  0  0
   31.2308    6.9107   27.5330 O   0  0  0  0  0  0  0  0  0  0  0  0
   32.4457    7.4551   27.6688 C   0  0  1  0  0  0  0  0  0  0  0  0
   33.5320    6.7653   27.9928 C   0  0  0  0  0  0  0  0  0  0  0  0
   32.2452    8.8432   27.2955 C   0  0  1  0  0  0  0  0  0  0  0  0
   32.4230    9.3402   26.3326 C   0  0  0  0  0  0  0  0  0  0  0  0
   31.2879    9.4795   28.0814 O   0  0  0  0  0  0  0  0  0  0  0  0
   33.8875    5.6276   27.6876 O   0  0  0  0  0  0  0  0  0  0  0  0
   34.4457    7.5999   28.4871 O   0  0  0  0  0  0  0  0  0  0  0  0
   34.5564    4.7285   28.5278 C   0  0  0  0  0  0  0  0  0  0  0  0
  2  1  1  6
  2  3  1  0
  1  4  1  0
  3  5  1  0
  4  6  1  0
  5  6  1  1
  5  7  1  0
  2  8  1  0
  8  9  1  1
  8 10  1  0
  3 11  1  0
 11 12  1  6
  7 13  1  0
 12 13  1  0
 10 14  1  0
 11 14  1  0
 10 15  1  1
 15 16  1  0
 16 17  1  6
 17 18  1  0
 18 19  1  0
 19 20  1  6
 19 21  1  0
 14 22  1  6
 21 22  1  6
 16 23  1  0
 21 23  1  0
 20 24  1  0
 20 25  2  0
 24 26  1  0
M  END
$$$$
92
     RDKit          3D

 26 30  0  0  0  0  0  0  0  0999 V2000
   34.2800   12.5589   23.2846 C   0  0  0  0  0  0  0  0  0  0  0  0
   34.4152   11.3380   23.7858 C   0  0  0  0  0  0  0  0  0  0  0  0
   33.4984   10.4098   23.7437 C   0  0  1  0  0  0  0  0  0  0  0  0
   33.6876    9.0287   24.3144 C   0  0  2  0  0  0  0  0  0  0  0  0
   32.7339    8.2887   24.8895 N   0  0  0  0  0  0  0  0  0  0  0  0
   32.0946   10.6836   23.4931 C   0  0  0  0  0  0  0  0  0  0  0  0
   34.9322    8.3759   24.3812 N   0  0  0  0  0  0  0  0  0  0  0  0
   31.3086    8.6655   24.7277 C   0  0  0  0  0  0  0  0  0  0  0  0
   32.7743    6.9931   25.6519 C   0  0  0  0  0  0  0  0  0  0  0  0
   30.3477    7.9431   25.3038 O   0  0  0  0  0  0  0  0  0  0  0  0
   31.0086    9.7818   23.8947 C   0  0  1  0  0  0  0  0  0  0  0  0
   32.9089   12.8907   22.8499 C   0  0  0  0  0  0  0  0  0  0  0  0
   33.9119    7.2705   26.6830 C   0  0  2  0  0  0  0  0  0  0  0  0
   35.0046    6.9810   24.2592 C   0  0  0  0  0  0  0  0  0  0  0  0
   35.0630    6.7345   25.8021 C   0  0  0  0  0  0  0  0  0  0  0  0
   31.8752   11.9245   22.8511 C   0  0  2  0  0  0  0  0  0  0  0  0
   29.6839   10.1481   23.6922 C   0  0  0  0  0  0  0  0  0  0  0  0
   29.5468   11.3532   22.8981 N   0  0  0  0  0  0  0  0  0  0  0  0
   30.5439   12.2054   22.4446 C   0  0  0  0  0  0  0  0  0  0  0  0
   33.5709    7.0468   27.9141 C   0  0  0  0  0  0  0  0  0  0  0  0
   32.3169    7.3415   28.4517 C   0  0  0  0  0  0  0  0  0  0  0  0
   30.2511   13.2220   21.6613 O   0  0  0  0  0  0  0  0  0  0  0  0
   34.4910    6.5045   28.8941 C   0  0  0  0  0  0  0  0  0  0  0  0
   34.1693    6.2639   30.2166 N   0  0  0  0  0  0  0  0  0  0  0  0
   32.8981    6.5275   30.6387 C   0  0  0  0  0  0  0  0  0  0  0  0
   32.0312    6.9806   29.7391 N   0  0  0  0  0  0  0  0  0  0  0  0
  1  2  1  0
  3  2  1  1
  3  4  1  0
  4  5  1  0
  3  6  1  0
  4  7  1  1
  5  8  1  0
  5  9  1  0
  8 10  2  0
  6 11  1  0
  8 11  1  0
  1 12  1  0
  9 13  1  0
  7 14  1  0
 13 15  1  0
 14 15  1  0
  6 16  1  0
 16 12  1  1
 11 17  1  1
 17 18  1  0
 16 19  1  0
 18 19  1  0
 13 20  1  1
 20 21  1  0
 19 22  2  0
 20 23  1  0
 23 24  1  0
 24 25  1  0
 21 26  1  0
 25 26  1  0
M  END
$$$$
93
     RDKit          3D

 26 31  0  0  0  0  0  0  0  0999 V2000
   30.5414    8.7410   28.0699 C   0  0  0  0  0  0  0  0  0  0  0  0
   30.1417    9.6363   27.2235 N   0  0  0  0  0  0  0  0  0  0  0  0
   30.7039    9.7158   25.9564 C   0  0  0  0  0  0  0  0  0  0  0  0
   30.2794   10.6967   25.0596 C   0  0  1  0  0  0  0  0  0  0  0  0
   31.5027    7.8655   27.7519 C   0  0  2  0  0  0  0  0  0  0  0  0
   30.9196   10.9727   23.8354 C   0  0  1  0  0  0  0  0  0  0  0  0
   32.0903    7.8568   26.4842 C   0  0  1  0  0  0  0  0  0  0  0  0
   29.0556   11.3111   25.1768 N   0  0  0  0  0  0  0  0  0  0  0  0
   28.4838   11.6292   24.1588 N   0  0  0  0  0  0  0  0  0  0  0  0
   31.6950    8.8018   25.5256 C   0  0  2  0  0  0  0  0  0  0  0  0
   31.8412    6.8553   28.7636 C   0  0  0  0  0  0  0  0  0  0  0  0
   29.5581   11.6800   23.1826 C   0  0  1  0  0  0  0  0  0  0  0  0
   31.9680    5.6350   28.5464 O   0  0  0  0  0  0  0  0  0  0  0  0
   32.1298   10.9929   23.3016 C   0  0  2  0  0  0  0  0  0  0  0  0
   33.1756   10.3332   23.8399 C   0  0  1  0  0  0  0  0  0  0  0  0
   29.9414   12.1934   21.8622 C   0  0  0  0  0  0  0  0  0  0  0  0
   28.9055   12.7889   21.1589 N   0  0  0  0  0  0  0  0  0  0  0  0
   31.2823   12.1343   21.3550 C   0  0  0  0  0  0  0  0  0  0  0  0
   32.9215    9.0567   24.6871 C   0  0  1  0  0  0  0  0  0  0  0  0
   32.2328    7.2924   29.9612 O   0  0  0  0  0  0  0  0  0  0  0  0
   34.3674   10.3340   23.3094 O   0  0  0  0  0  0  0  0  0  0  0  0
   33.9072    8.2009   25.0614 N   0  0  0  0  0  0  0  0  0  0  0  0
   33.4901    7.5501   26.0546 C   0  0  0  0  0  0  0  0  0  0  0  0
   34.7280   11.6305   22.9240 C   0  0  0  0  0  0  0  0  0  0  0  0
   32.4107   11.8087   22.1511 C   0  0  2  0  0  0  0  0  0  0  0  0
   33.7201   12.0543   21.8598 C   0  0  0  0  0  0  0  0  0  0  0  0
  1  2  1  0
  2  3  1  0
  3  4  1  0
  1  5  1  0
  6  4  1  1
  5  7  1  0
  4  8  1  6
  8  9  1  0
 10  3  1  1
  7 10  1  0
  5 11  1  6
  6 12  1  0
 12  9  1  1
 11 13  2  0
  6 14  1  0
 14 15  1  0
 12 16  1  0
 16 17  1  0
 16 18  1  0
 10 19  1  0
 15 19  1  0
 11 20  1  0
 15 21  1  6
 19 22  1  1
  7 23  1  1
 22 23  1  0
 21 24  1  0
 14 25  1  1
 25 18  1  6
 24 26  1  0
 25 26  1  0
M  END
$$$$
94
     RDKit          3D

 26 28  0  0  0  0  0  0  0  0999 V2000
   30.0228   12.5864   21.7485 C   0  0  0  0  0  0  0  0  0  0  0  0
   31.3032   12.6102   21.9838 C   0  0  2  0  0  0  0  0  0  0  0  0
   32.1983   13.2778   21.2181 C   0  0  0  0  0  0  0  0  0  0  0  0
   29.3852   13.2865   20.7299 N   0  0  0  0  0  0  0  0  0  0  0  0
   29.4601   11.6804   22.7353 N   0  0  0  0  0  0  0  0  0  0  0  0
   30.3171   11.1450   23.5183 C   0  0  1  0  0  0  0  0  0  0  0  0
   31.6067   11.7514   23.1229 C   0  0  2  0  0  0  0  0  0  0  0  0
   30.2971   10.3350   24.6534 C   0  0  0  0  0  0  0  0  0  0  0  0
   32.9142   11.6354   23.8681 C   0  0  0  0  0  0  0  0  0  0  0  0
   33.9063   12.2768   23.4892 C   0  0  0  0  0  0  0  0  0  0  0  0
   32.8491   10.8726   25.1302 C   0  0  0  0  0  0  0  0  0  0  0  0
   31.6297   10.0353   25.3193 C   0  0  1  0  0  0  0  0  0  0  0  0
   31.5668    9.1834   26.5217 C   0  0  2  0  0  0  0  0  0  0  0  0
   32.6119    8.2646   26.6187 C   0  0  0  0  0  0  0  0  0  0  0  0
   32.5919    7.2353   27.5617 N   0  0  0  0  0  0  0  0  0  0  0  0
   33.7146    8.1474   25.8462 O   0  0  0  0  0  0  0  0  0  0  0  0
   30.5716    9.0608   27.4191 C   0  0  0  0  0  0  0  0  0  0  0  0
   33.6706    6.2515   27.6545 C   0  0  0  0  0  0  0  0  0  0  0  0
   31.7445    7.3327   28.6041 C   0  0  0  0  0  0  0  0  0  0  0  0
   29.4637    9.9283   27.3782 O   0  0  0  0  0  0  0  0  0  0  0  0
   30.5877    8.1164   28.4037 N   0  0  0  0  0  0  0  0  0  0  0  0
   31.7152    6.3819   29.5279 O   0  0  0  0  0  0  0  0  0  0  0  0
   34.1176    5.6738   28.7037 C   0  0  0  0  0  0  0  0  0  0  0  0
   34.4437    4.4657   28.6412 C   0  0  0  0  0  0  0  0  0  0  0  0
   34.6049    3.5780   29.9003 C   0  0  0  0  0  0  0  0  0  0  0  0
   34.5362    4.0007   27.6589 O   0  0  0  0  0  0  0  0  0  0  0  0
  1  2  1  0
  2  3  1  6
  1  4  1  0
  1  5  1  0
  5  6  1  0
  2  7  1  0
  6  7  1  0
  6  8  1  1
  7  9  1  1
  9 10  2  0
  9 11  1  0
 12  8  1  1
 11 12  1  0
 12 13  1  0
 13 14  1  6
 14 15  1  0
 14 16  2  0
 13 17  1  0
 15 18  1  0
 15 19  1  0
 17 20  2  0
 17 21  1  0
 19 21  1  0
 19 22  2  0
 18 23  1  0
 23 24  1  0
 24 25  1  0
 24 26  2  0
M  END
$$$$
95
     RDKit          3D

 26 29  0  0  0  0  0  0  0  0999 V2000
   29.4509   11.5024   22.9892 C   0  0  0  0  0  0  0  0  0  0  0  0
   29.6901   10.8300   23.9873 C   0  0  1  0  0  0  0  0  0  0  0  0
   30.3304   12.1704   22.4184 C   0  0  0  0  0  0  0  0  0  0  0  0
   31.0090   10.7495   24.5355 C   0  0  0  0  0  0  0  0  0  0  0  0
   32.0012   11.5651   23.9075 C   0  0  1  0  0  0  0  0  0  0  0  0
   33.3529   11.5560   24.3128 C   0  0  0  0  0  0  0  0  0  0  0  0
   31.6133   12.2482   22.7233 C   0  0  2  0  0  0  0  0  0  0  0  0
   32.6188   13.0418   22.0279 C   0  0  0  0  0  0  0  0  0  0  0  0
   34.2781   12.4126   23.5534 C   0  0  0  0  0  0  0  0  0  0  0  0
   28.7090    9.9975   24.9162 C   0  0  0  0  0  0  0  0  0  0  0  0
   31.0737    9.8330   25.6971 C   0  0  0  0  0  0  0  0  0  0  0  0
   29.5772    9.4481   25.9423 N   0  0  0  0  0  0  0  0  0  0  0  0
   33.8814   12.7868   22.4571 C   0  0  0  0  0  0  0  0  0  0  0  0
   31.9425    9.7727   26.3698 O   0  0  0  0  0  0  0  0  0  0  0  0
   29.1681    8.6282   27.1155 C   0  0  0  0  0  0  0  0  0  0  0  0
   29.7864   13.0732   21.0438 C   0  0  0  0  0  0  0  0  0  0  0  0
   28.3327    9.2657   27.8556 O   0  0  0  0  0  0  0  0  0  0  0  0
   29.7731    7.5836   27.5227 C   0  0  0  0  0  0  0  0  0  0  0  0
   30.9528    7.6825   28.4407 C   0  0  0  0  0  0  0  0  0  0  0  0
   31.5310    6.4531   28.9576 C   0  0  1  0  0  0  0  0  0  0  0  0
   33.0358    6.2727   28.8631 C   0  0  0  0  0  0  0  0  0  0  0  0
   33.6099    5.0857   29.4198 C   0  0  0  0  0  0  0  0  0  0  0  0
   32.9961    4.1953   30.0034 C   0  0  0  0  0  0  0  0  0  0  0  0
   35.1368    5.0979   29.2328 C   0  0  0  0  0  0  0  0  0  0  0  0
   31.4996    4.3826   30.3263 C   0  0  0  0  0  0  0  0  0  0  0  0
   30.8613    5.4725   29.7713 C   0  0  0  0  0  0  0  0  0  0  0  0
  2  1  1  1
  1  3  1  0
  2  4  1  0
  4  5  1  0
  5  6  1  6
  3  7  1  0
  5  7  1  0
  7  8  1  1
  6  9  1  0
  2 10  1  0
  4 11  1  0
 10 12  1  0
 11 12  1  0
  8 13  1  0
  9 13  1  0
 11 14  2  0
 12 15  1  0
  3 16  1  0
 15 17  2  0
 15 18  1  0
 18 19  1  0
 20 19  1  1
 20 21  1  0
 21 22  1  0
 22 23  1  0
 22 24  1  0
 23 25  1  0
 20 26  1  0
 25 26  1  0
M  END
$$$$
96
     RDKit          3D

 26 30  0  0  0  0  0  0  0  0999 V2000
   34.2800   12.5589   23.2846 C   0  0  0  0  0  0  0  0  0  0  0  0
   34.4152   11.3380   23.7858 C   0  0  0  0  0  0  0  0  0  0  0  0
   33.4984   10.4098   23.7437 C   0  0  1  0  0  0  0  0  0  0  0  0
   33.6876    9.0287   24.3144 C   0  0  2  0  0  0  0  0  0  0  0  0
   32.7339    8.2887   24.8895 N   0  0  0  0  0  0  0  0  0  0  0  0
   32.0946   10.6836   23.4931 C   0  0  0  0  0  0  0  0  0  0  0  0
   34.9322    8.3759   24.3812 N   0  0  0  0  0  0  0  0  0  0  0  0
   31.3086    8.6655   24.7277 C   0  0  0  0  0  0  0  0  0  0  0  0
   32.7743    6.9931   25.6519 C   0  0  0  0  0  0  0  0  0  0  0  0
   30.3477    7.9431   25.3038 O   0  0  0  0  0  0  0  0  0  0  0  0
   31.0086    9.7818   23.8947 C   0  0  1  0  0  0  0  0  0  0  0  0
   32.9089   12.8907   22.8499 C   0  0  0  0  0  0  0  0  0  0  0  0
   33.9119    7.2705   26.6830 C   0  0  2  0  0  0  0  0  0  0  0  0
   35.0046    6.9810   24.2592 C   0  0  0  0  0  0  0  0  0  0  0  0
   35.0630    6.7345   25.8021 C   0  0  0  0  0  0  0  0  0  0  0  0
   31.8752   11.9245   22.8511 C   0  0  2  0  0  0  0  0  0  0  0  0
   29.6839   10.1481   23.6922 C   0  0  0  0  0  0  0  0  0  0  0  0
   29.5468   11.3532   22.8981 N   0  0  0  0  0  0  0  0  0  0  0  0
   30.5439   12.2054   22.4446 C   0  0  0  0  0  0  0  0  0  0  0  0
   33.5709    7.0468   27.9141 C   0  0  0  0  0  0  0  0  0  0  0  0
   32.3169    7.3415   28.4517 C   0  0  0  0  0  0  0  0  0  0  0  0
   30.2511   13.2220   21.6613 O   0  0  0  0  0  0  0  0  0  0  0  0
   34.1833    5.9722   28.7091 C   0  0  0  0  0  0  0  0  0  0  0  0
   33.8730    5.6054   29.7630 C   0  0  0  0  0  0  0  0  0  0  0  0
   32.5962    5.9675   30.3846 C   0  0  0  0  0  0  0  0  0  0  0  0
   31.9419    6.7412   29.7633 C   0  0  0  0  0  0  0  0  0  0  0  0
  1  2  1  0
  3  2  1  1
  3  4  1  0
  4  5  1  0
  3  6  1  0
  4  7  1  1
  5  8  1  0
  5  9  1  0
  8 10  2  0
  6 11  1  0
  8 11  1  0
  1 12  1  0
  9 13  1  0
  7 14  1  0
 13 15  1  0
 14 15  1  0
  6 16  1  0
 16 12  1  1
 11 17  1  1
 17 18  1  0
 16 19  1  0
 18 19  1  0
 13 20  1  1
 20 21  1  0
 19 22  2  0
 20 23  1  0
 23 24  1  0
 24 25  1  0
 21 26  1  0
 25 26  1  0
M  END
$$$$
97
     RDKit          3D

 26 29  0  0  0  0  0  0  0  0999 V2000
   30.6804   12.8394   21.1336 C   0  0  0  0  0  0  0  0  0  0  0  0
   31.8325   12.6790   21.7882 C   0  0  0  0  0  0  0  0  0  0  0  0
   32.0421   12.0051   22.9915 C   0  0  0  0  0  0  0  0  0  0  0  0
   29.5080   12.3058   21.7956 C   0  0  0  0  0  0  0  0  0  0  0  0
   28.3067   12.4827   21.1951 O   0  0  0  0  0  0  0  0  0  0  0  0
   29.6785   11.5728   23.0289 C   0  0  0  0  0  0  0  0  0  0  0  0
   28.5986   11.0410   23.6541 N   0  0  0  0  0  0  0  0  0  0  0  0
   30.9611   11.4497   23.5887 C   0  0  0  0  0  0  0  0  0  0  0  0
   33.6774   11.9689   23.5887 Cl  0  0  0  0  0  0  0  0  0  0  0  0
   28.7887   10.4851   24.8387 C   0  0  0  0  0  0  0  0  0  0  0  0
   30.0968   10.2841   25.3522 C   0  0  1  0  0  0  0  0  0  0  0  0
   31.0228   10.7016   24.8139 C   0  0  0  0  0  0  0  0  0  0  0  0
   30.1789    9.5121   26.7917 C   0  0  0  0  0  0  0  0  0  0  0  0
   31.0882    8.6733   26.9078 N   0  0  0  0  0  0  0  0  0  0  0  0
   29.1918    9.4914   27.5910 O   0  0  0  0  0  0  0  0  0  0  0  0
   32.2024    8.4844   25.9726 C   0  0  0  0  0  0  0  0  0  0  0  0
   31.2061    7.8578   28.0455 C   0  0  0  0  0  0  0  0  0  0  0  0
   32.5458    7.2704   28.2174 C   0  0  1  0  0  0  0  0  0  0  0  0
   32.8125    6.2142   28.9562 C   0  0  1  0  0  0  0  0  0  0  0  0
   32.9437    7.2287   26.7361 C   0  0  0  0  0  0  0  0  0  0  0  0
   34.0112    6.0800   29.5179 C   0  0  0  0  0  0  0  0  0  0  0  0
   31.6972    5.9935   30.1026 C   0  0  0  0  0  0  0  0  0  0  0  0
   34.3804    4.7756   30.1815 C   0  0  1  0  0  0  0  0  0  0  0  0
   35.5716    4.4205   30.4711 O   0  0  0  0  0  0  0  0  0  0  0  0
   33.2950    4.3334   31.2146 C   0  0  0  0  0  0  0  0  0  0  0  0
   31.9029    4.6818   30.7421 C   0  0  0  0  0  0  0  0  0  0  0  0
  1  2  1  0
  2  3  1  0
  1  4  1  0
  4  5  1  0
  4  6  1  0
  6  7  1  0
  3  8  1  0
  6  8  1  0
  3  9  1  0
  7 10  1  0
 10 11  1  0
  8 12  1  0
 11 12  1  0
 11 13  1  1
 13 14  1  0
 13 15  2  0
 14 16  1  0
 14 17  1  0
 18 17  1  6
 18 19  1  0
 16 20  1  0
 18 20  1  0
 19 21  1  1
 19 22  1  0
 21 23  1  0
 23 24  1  1
 23 25  1  0
 22 26  1  0
 25 26  1  0
M  END
$$$$
98
     RDKit          3D

 26 29  0  0  0  0  0  0  0  0999 V2000
   29.2592   12.1480   22.0997 C   0  0  0  0  0  0  0  0  0  0  0  0
   29.6030   11.4340   23.1202 N   0  0  0  0  0  0  0  0  0  0  0  0
   30.1466   12.8003   21.2957 C   0  0  0  0  0  0  0  0  0  0  0  0
   30.9133   11.3828   23.4912 C   0  0  1  0  0  0  0  0  0  0  0  0
   31.3706   10.6492   24.6187 N   0  0  0  0  0  0  0  0  0  0  0  0
   31.8974   12.0160   22.6900 C   0  0  0  0  0  0  0  0  0  0  0  0
   31.4897   12.7545   21.5715 C   0  0  0  0  0  0  0  0  0  0  0  0
   33.1952   11.6697   23.2709 C   0  0  1  0  0  0  0  0  0  0  0  0
   34.4293   12.0810   22.8999 O   0  0  0  0  0  0  0  0  0  0  0  0
   32.8225   10.8518   24.4693 C   0  0  0  0  0  0  0  0  0  0  0  0
   30.6611   10.2366   25.6713 C   0  0  0  0  0  0  0  0  0  0  0  0
   35.4410   11.3691   23.5932 C   0  0  0  0  0  0  0  0  0  0  0  0
   31.0490    9.0346   26.2460 C   0  0  1  0  0  0  0  0  0  0  0  0
   29.3551   10.5784   25.6963 O   0  0  0  0  0  0  0  0  0  0  0  0
   32.1162    8.2201   25.8543 C   0  0  2  0  0  0  0  0  0  0  0  0
   32.5038    8.0282   24.6066 O   0  0  0  0  0  0  0  0  0  0  0  0
   33.1193    6.8546   24.2234 C   0  0  0  0  0  0  0  0  0  0  0  0
   32.8286    7.4096   26.8060 C   0  0  1  0  0  0  0  0  0  0  0  0
   33.9520    6.7219   26.4579 O   0  0  0  0  0  0  0  0  0  0  0  0
   34.0188    6.5276   25.1173 C   0  0  0  0  0  0  0  0  0  0  0  0
   32.6660    7.6493   28.2106 C   0  0  2  0  0  0  0  0  0  0  0  0
   33.2325    6.7919   29.1619 C   0  0  0  0  0  0  0  0  0  0  0  0
   30.5413    8.8870   27.5570 C   0  0  0  0  0  0  0  0  0  0  0  0
   33.2205    5.4349   28.9831 O   0  0  0  0  0  0  0  0  0  0  0  0
   34.0757    4.5077   29.6070 C   0  0  0  0  0  0  0  0  0  0  0  0
   31.1615    8.2091   28.4591 C   0  0  0  0  0  0  0  0  0  0  0  0
  1  2  1  0
  1  3  1  0
  4  2  1  6
  4  5  1  0
  4  6  1  0
  3  7  1  0
  6  7  1  0
  6  8  1  0
  8  9  1  1
  5 10  1  0
  8 10  1  0
  5 11  1  0
  9 12  1  0
 13 11  1  1
 11 14  2  0
 13 15  1  0
 15 16  1  6
 16 17  1  0
 15 18  1  0
 18 19  1  6
 17 20  1  0
 19 20  1  0
 18 21  1  0
 21 22  1  1
 13 23  1  0
 22 24  1  0
 24 25  1  0
 21 26  1  0
 23 26  1  0
M  END
$$$$
99
     RDKit          3D

 26 29  0  0  0  0  0  0  0  0999 V2000
   29.2737   10.4558   23.8011 C   0  0  2  0  0  0  0  0  0  0  0  0
   30.2888   10.0258   24.5823 C   0  0  2  0  0  0  0  0  0  0  0  0
   30.1677    9.2672   25.7047 O   0  0  0  0  0  0  0  0  0  0  0  0
   31.1220    9.3000   26.8409 C   0  0  1  0  0  0  0  0  0  0  0  0
   30.5822    8.5439   27.9081 C   0  0  0  0  0  0  0  0  0  0  0  0
   30.6037    7.1804   27.6019 O   0  0  0  0  0  0  0  0  0  0  0  0
   29.3936   11.3233   22.7650 N   0  0  0  0  0  0  0  0  0  0  0  0
   31.6280   10.5275   24.1399 C   0  0  2  0  0  0  0  0  0  0  0  0
   27.9142   10.1098   24.2743 O   0  0  0  0  0  0  0  0  0  0  0  0
   32.8518   10.1349   24.8719 C   0  0  1  0  0  0  0  0  0  0  0  0
   32.3901    9.1523   26.0537 C   0  0  0  0  0  0  0  0  0  0  0  0
   34.1105   10.2299   24.4713 N   0  0  0  0  0  0  0  0  0  0  0  0
   33.3736    8.1560   26.2530 C   0  0  0  0  0  0  0  0  0  0  0  0
   34.3173   11.1755   23.4543 C   0  0  0  0  0  0  0  0  0  0  0  0
   34.1079    7.5857   25.5211 O   0  0  0  0  0  0  0  0  0  0  0  0
   31.9300   11.5029   23.1501 C   0  0  1  0  0  0  0  0  0  0  0  0
   33.3361    7.2470   27.4979 C   0  0  0  0  0  0  0  0  0  0  0  0
   33.2171   11.8257   22.8449 C   0  0  0  0  0  0  0  0  0  0  0  0
   30.6960   11.8211   22.3972 C   0  0  0  0  0  0  0  0  0  0  0  0
   32.0035    6.6556   27.9658 C   0  0  0  0  0  0  0  0  0  0  0  0
   32.0231    5.4960   28.8746 C   0  0  0  0  0  0  0  0  0  0  0  0
   30.7462   12.7022   21.2666 C   0  0  0  0  0  0  0  0  0  0  0  0
   31.4237    5.6216   30.1586 C   0  0  0  0  0  0  0  0  0  0  0  0
   31.6329    4.4999   31.0491 C   0  0  0  0  0  0  0  0  0  0  0  0
   31.0781    4.3642   32.2052 O   0  0  0  0  0  0  0  0  0  0  0  0
   32.5040    3.4880   30.6576 O   0  0  0  0  0  0  0  0  0  0  0  0
  1  2  1  0
  2  3  1  1
  3  4  1  0
  4  5  1  1
  5  6  1  0
  1  7  1  0
  2  8  1  0
  1  9  1  1
  8 10  1  1
  4 11  1  0
 10 11  1  0
 10 12  1  6
 11 13  2  0
 12 14  1  0
 13 15  1  0
  8 16  1  0
 13 17  1  0
 14 18  1  0
 16 18  1  6
  7 19  1  0
 16 19  1  0
  6 20  1  0
 17 20  2  0
 20 21  1  0
 19 22  1  0
 21 23  1  0
 23 24  1  0
 24 25  1  0
 24 26  2  0
M  END
$$$$
