0
     RDKit          3D

  9  9  0  0  0  0  0  0  0  0999 V2000
   62.6946   13.2798   34.8710 C   0  0  0  0  0  0  0  0  0  0  0  0
   62.4127   14.5040   35.3114 C   0  0  0  0  0  0  0  0  0  0  0  0
   63.1565   15.0470   36.2685 C   0  0  0  0  0  0  0  0  0  0  0  0
   60.8150   14.5849   35.7040 C   0  0  0  0  0  0  0  0  0  0  0  0
   61.8610   12.5350   33.8350 C   0  0  0  0  0  0  0  0  0  0  0  0
   60.6923   12.7705   33.8603 C   0  0  0  0  0  0  0  0  0  0  0  0
   60.0674   14.0021   34.4866 C   0  0  0  0  0  0  0  0  0  0  0  0
   63.6380   16.2201   36.0820 O   0  0  0  0  0  0  0  0  0  0  0  0
   63.7934   17.1808   37.0150 C   0  0  0  0  0  0  0  0  0  0  0  0
  1  2  1  0
  2  3  1  0
  2  4  1  0
  1  5  1  0
  5  6  1  0
  4  7  1  0
  6  7  1  0
  3  8  1  0
  8  9  1  0
M  END
$$$$
1
     RDKit          3D

  9  9  0  0  0  0  0  0  0  0999 V2000
   62.6946   13.2798   34.8710 C   0  0  0  0  0  0  0  0  0  0  0  0
   62.4127   14.5040   35.3114 C   0  0  0  0  0  0  0  0  0  0  0  0
   63.1565   15.0470   36.2685 C   0  0  0  0  0  0  0  0  0  0  0  0
   60.8150   14.5849   35.7040 C   0  0  0  0  0  0  0  0  0  0  0  0
   63.9726   14.2836   36.9554 N   0  0  0  0  0  0  0  0  0  0  0  0
   61.8606   12.6120   33.7866 C   0  0  0  0  0  0  0  0  0  0  0  0
   60.4123   12.8420   33.9048 C   0  0  0  0  0  0  0  0  0  0  0  0
   60.0461   14.1571   34.3903 C   0  0  0  0  0  0  0  0  0  0  0  0
   63.1798   16.2245   36.6420 N   0  0  0  0  0  0  0  0  0  0  0  0
  1  2  1  0
  2  3  1  0
  2  4  1  0
  3  5  1  0
  1  6  1  0
  6  7  1  0
  4  8  1  0
  7  8  1  0
  3  9  2  0
M  END
$$$$
10
     RDKit          3D

 17 19  0  0  0  0  0  0  0  0999 V2000
   56.2842   18.1561   33.9954 O   0  0  0  0  0  0  0  0  0  0  0  0
   57.1336   18.1061   33.0700 C   0  0  0  0  0  0  0  0  0  0  0  0
   57.1036   17.3336   31.8228 N   0  0  0  0  0  0  0  0  0  0  0  0
   56.1462   16.3486   31.6551 C   0  0  0  0  0  0  0  0  0  0  0  0
   58.1666   17.3670   30.8128 C   0  0  1  0  0  0  0  0  0  0  0  0
   57.7203   17.2160   29.5521 C   0  0  1  0  0  0  0  0  0  0  0  0
   58.3868   18.9263   32.9854 C   0  0  0  0  0  0  0  0  0  0  0  0
   59.0109   18.5148   31.5603 C   0  0  1  0  0  0  0  0  0  0  0  0
   60.3125   18.9422   31.1481 C   0  0  0  0  0  0  0  0  0  0  0  0
   56.9306   16.0165   29.4342 C   0  0  2  0  0  0  0  0  0  0  0  0
   56.4553   15.7254   28.1656 O   0  0  0  0  0  0  0  0  0  0  0  0
   60.8182   19.9524   32.0731 C   0  0  0  0  0  0  0  0  0  0  0  0
   59.0574   19.7902   33.6879 C   0  0  0  0  0  0  0  0  0  0  0  0
   55.7297   16.0227   30.3828 C   0  0  0  0  0  0  0  0  0  0  0  0
   60.2718   20.3573   33.2615 C   0  0  0  0  0  0  0  0  0  0  0  0
   54.4300   15.7060   30.1187 C   0  0  0  0  0  0  0  0  0  0  0  0
   57.3454   18.5626   29.2183 O   0  0  0  0  0  0  0  0  0  0  0  0
  1  2  2  0
  2  3  1  0
  3  4  1  0
  5  3  1  1
  5  6  1  0
  2  7  1  0
  5  8  1  0
  7  8  1  0
  8  9  1  1
  6 10  1  0
 10 11  1  6
  9 12  1  0
  7 13  1  0
  4 14  1  0
 10 14  1  0
 12 15  1  0
 13 15  1  0
 14 16  2  0
  6 17  1  1
M  END
$$$$
100
     RDKit          3D

 23 25  0  0  0  0  0  0  0  0999 V2000
   56.0267   17.9876   33.9524 O   0  0  0  0  0  0  0  0  0  0  0  0
   56.9684   17.9993   33.0146 C   0  0  0  0  0  0  0  0  0  0  0  0
   56.7467   17.2623   31.7573 N   0  0  0  0  0  0  0  0  0  0  0  0
   58.2935   18.3560   33.1509 C   0  0  1  0  0  0  0  0  0  0  0  0
   57.7296   17.1567   30.7770 C   0  0  1  0  0  0  0  0  0  0  0  0
   55.5056   16.6538   31.4677 C   0  0  0  0  0  0  0  0  0  0  0  0
   54.6862   17.2332   30.5532 C   0  0  1  0  0  0  0  0  0  0  0  0
   58.8362   18.2188   31.0271 C   0  0  2  0  0  0  0  0  0  0  0  0
   58.3736   15.9568   30.5456 O   0  0  0  0  0  0  0  0  0  0  0  0
   58.8939   19.0502   32.0617 N   0  0  0  0  0  0  0  0  0  0  0  0
   60.1697   19.6889   32.4512 C   0  0  0  0  0  0  0  0  0  0  0  0
   60.6521   19.3333   33.5513 O   0  0  0  0  0  0  0  0  0  0  0  0
   59.9885   19.1542   34.4714 C   0  0  0  0  0  0  0  0  0  0  0  0
   58.9569   18.9165   29.6253 O   0  0  0  0  0  0  0  0  0  0  0  0
   55.0669   15.6272   32.0375 O   0  0  0  0  0  0  0  0  0  0  0  0
   58.5902   18.9416   34.3859 O   0  0  0  0  0  0  0  0  0  0  0  0
   54.8833   18.4426   29.9955 C   0  0  0  0  0  0  0  0  0  0  0  0
   53.5707   16.3806   29.9851 C   0  0  2  0  0  0  0  0  0  0  0  0
   53.9737   19.0259   29.0325 C   0  0  0  0  0  0  0  0  0  0  0  0
   53.3760   14.9696   30.3824 O   0  0  0  0  0  0  0  0  0  0  0  0
   52.8249   16.8015   28.8951 C   0  0  1  0  0  0  0  0  0  0  0  0
   51.7977   15.9259   28.3228 C   0  0  0  0  0  0  0  0  0  0  0  0
   52.9764   18.1490   28.4866 C   0  0  0  0  0  0  0  0  0  0  0  0
  1  2  2  0
  2  3  1  0
  2  4  1  0
  3  5  1  0
  3  6  1  0
  7  6  1  6
  5  8  1  0
  5  9  1  1
  4 10  1  0
  8 10  1  0
 10 11  1  0
 11 12  1  0
 12 13  1  0
  8 14  1  6
  6 15  2  0
  4 16  1  1
 13 16  1  0
  7 17  1  0
  7 18  1  0
 17 19  1  0
 18 20  1  6
 18 21  1  0
 21 22  1  1
 19 23  1  0
 21 23  1  0
M  END
$$$$
101
     RDKit          3D

 23 25  0  0  0  0  0  0  0  0999 V2000
   58.4933   17.8007   29.2392 N   0  0  0  0  0  0  0  0  0  0  0  0
   57.5702   17.3755   30.0157 C   0  0  1  0  0  0  0  0  0  0  0  0
   57.4142   18.1553   31.1543 N   0  0  0  0  0  0  0  0  0  0  0  0
   56.3257   17.0463   29.3673 N   0  0  0  0  0  0  0  0  0  0  0  0
   58.6098   18.4457   31.9692 C   0  0  2  0  0  0  0  0  0  0  0  0
   59.5248   17.5854   32.1030 O   0  0  0  0  0  0  0  0  0  0  0  0
   59.8638   17.4026   33.4498 C   0  0  2  0  0  0  0  0  0  0  0  0
   60.2757   16.0629   33.7655 C   0  0  2  0  0  0  0  0  0  0  0  0
   58.3803   17.5714   34.1288 C   0  0  1  0  0  0  0  0  0  0  0  0
   57.9595   18.7093   33.2997 C   0  0  1  0  0  0  0  0  0  0  0  0
   61.5636   15.9271   34.2660 O   0  0  0  0  0  0  0  0  0  0  0  0
   56.0457   18.2948   31.4373 C   0  0  0  0  0  0  0  0  0  0  0  0
   57.5744   16.4538   33.9671 O   0  0  0  0  0  0  0  0  0  0  0  0
   61.9414   14.5373   34.8095 C   0  0  0  0  0  0  0  0  0  0  0  0
   55.3239   17.6263   30.4022 C   0  0  1  0  0  0  0  0  0  0  0  0
   53.9181   17.6043   30.3541 C   0  0  0  0  0  0  0  0  0  0  0  0
   53.3075   18.4387   29.7233 O   0  0  0  0  0  0  0  0  0  0  0  0
   53.3336   16.4863   30.7849 O   0  0  0  0  0  0  0  0  0  0  0  0
   61.2209   13.5754   34.2718 C   0  0  1  0  0  0  0  0  0  0  0  0
   59.7670   15.0040   32.9657 C   0  0  0  0  0  0  0  0  0  0  0  0
   60.1685   13.6789   33.2844 C   0  0  0  0  0  0  0  0  0  0  0  0
   61.7528   12.2453   34.6749 C   0  0  0  0  0  0  0  0  0  0  0  0
   58.1165   19.9126   33.4387 O   0  0  0  0  0  0  0  0  0  0  0  0
  2  1  1  6
  2  3  1  0
  2  4  1  0
  5  3  1  6
  5  6  1  0
  7  6  1  6
  7  8  1  0
  7  9  1  0
  5 10  1  0
  9 10  1  0
  8 11  1  0
  3 12  1  0
  9 13  1  6
 11 14  1  0
  4 15  1  0
 12 15  1  0
 15 16  1  6
 16 17  1  0
 16 18  2  0
 14 19  1  0
  8 20  1  6
 19 21  1  0
 20 21  1  0
 19 22  1  6
 10 23  1  1
M  END
$$$$
102
     RDKit          3D

 23 26  0  0  0  0  0  0  0  0999 V2000
   62.1862   12.6853   34.4132 C   0  0  0  0  0  0  0  0  0  0  0  0
   61.0478   12.8507   33.7557 C   0  0  0  0  0  0  0  0  0  0  0  0
   60.5047   14.0769   33.7872 C   0  0  2  0  0  0  0  0  0  0  0  0
   59.3386   14.4448   33.0203 O   0  0  0  0  0  0  0  0  0  0  0  0
   62.8652   13.6439   35.1942 C   0  0  0  0  0  0  0  0  0  0  0  0
   61.1683   15.1544   34.5789 C   0  0  1  0  0  0  0  0  0  0  0  0
   60.4611   16.4169   34.5236 C   0  0  0  0  0  0  0  0  0  0  0  0
   58.9993   15.7442   33.0815 C   0  0  2  0  0  0  0  0  0  0  0  0
   62.2888   14.9363   35.3847 C   0  0  0  0  0  0  0  0  0  0  0  0
   59.4305   16.6826   33.7928 C   0  0  0  0  0  0  0  0  0  0  0  0
   58.7488   18.0205   33.8180 C   0  0  0  0  0  0  0  0  0  0  0  0
   57.8455   16.1909   32.2844 C   0  0  2  0  0  0  0  0  0  0  0  0
   57.1767   15.1012   31.3959 O   0  0  0  0  0  0  0  0  0  0  0  0
   56.3251   15.8039   30.5412 C   0  0  2  0  0  0  0  0  0  0  0  0
   57.4533   17.3195   31.9911 C   0  0  2  0  0  0  0  0  0  0  0  0
   57.9594   18.3423   32.9688 C   0  0  0  0  0  0  0  0  0  0  0  0
   56.3126   17.3091   31.0512 C   0  0  1  0  0  0  0  0  0  0  0  0
   55.6357   18.3573   30.5641 C   0  0  0  0  0  0  0  0  0  0  0  0
   56.0712   19.6401   30.7744 N   0  0  0  0  0  0  0  0  0  0  0  0
   54.5575   18.1031   29.8701 O   0  0  0  0  0  0  0  0  0  0  0  0
   57.3056   20.1144   30.6326 C   0  0  0  0  0  0  0  0  0  0  0  0
   55.4424   15.5402   29.5778 C   0  0  0  0  0  0  0  0  0  0  0  0
   54.9942   20.6088   31.1605 C   0  0  0  0  0  0  0  0  0  0  0  0
  1  2  1  0
  3  2  1  6
  3  4  1  0
  1  5  1  0
  3  6  1  0
  6  7  1  1
  8  4  1  1
  5  9  1  0
  6  9  1  0
  7 10  1  0
  8 10  1  0
 10 11  1  0
  8 12  1  0
 12 13  1  6
 13 14  1  0
 12 15  1  0
 11 16  1  0
 15 16  1  1
 14 17  1  0
 15 17  1  0
 17 18  1  6
 18 19  1  0
 18 20  2  0
 19 21  1  0
 14 22  1  1
 19 23  1  0
M  END
$$$$
103
     RDKit          3D

 23 24  0  0  0  0  0  0  0  0999 V2000
   56.0267   17.9876   33.9524 O   0  0  0  0  0  0  0  0  0  0  0  0
   56.9684   17.9993   33.0146 C   0  0  0  0  0  0  0  0  0  0  0  0
   56.7467   17.2623   31.7573 N   0  0  0  0  0  0  0  0  0  0  0  0
   58.2935   18.3560   33.1509 C   0  0  0  0  0  0  0  0  0  0  0  0
   57.7296   17.1567   30.7770 C   0  0  1  0  0  0  0  0  0  0  0  0
   55.5056   16.6538   31.4677 C   0  0  0  0  0  0  0  0  0  0  0  0
   54.6862   17.2332   30.5532 C   0  0  1  0  0  0  0  0  0  0  0  0
   58.8362   18.2188   31.0271 C   0  0  0  0  0  0  0  0  0  0  0  0
   58.3736   15.9568   30.5456 O   0  0  0  0  0  0  0  0  0  0  0  0
   58.8939   19.0502   32.0617 N   0  0  0  0  0  0  0  0  0  0  0  0
   54.8942   18.4966   30.0788 C   0  0  2  0  0  0  0  0  0  0  0  0
   60.1891   19.6857   32.4487 C   0  0  0  0  0  0  0  0  0  0  0  0
   53.5985   16.3125   30.0800 C   0  0  0  0  0  0  0  0  0  0  0  0
   59.6915   18.4077   30.0014 O   0  0  0  0  0  0  0  0  0  0  0  0
   55.8384   19.3383   30.5429 O   0  0  0  0  0  0  0  0  0  0  0  0
   60.4347   19.7883   33.6502 O   0  0  0  0  0  0  0  0  0  0  0  0
   52.6227   16.8083   29.1857 C   0  0  2  0  0  0  0  0  0  0  0  0
   51.5509   15.9922   28.6484 C   0  0  0  0  0  0  0  0  0  0  0  0
   53.8778   18.9290   29.1372 C   0  0  0  0  0  0  0  0  0  0  0  0
   52.8113   18.0254   28.6471 C   0  0  0  0  0  0  0  0  0  0  0  0
   51.7107   14.8125   28.2210 O   0  0  0  0  0  0  0  0  0  0  0  0
   50.2594   16.4132   28.7525 N   0  0  0  0  0  0  0  0  0  0  0  0
   61.7311   19.7635   34.2218 C   0  0  0  0  0  0  0  0  0  0  0  0
  1  2  2  0
  2  3  1  0
  2  4  1  0
  3  5  1  0
  3  6  1  0
  7  6  1  6
  5  8  1  0
  5  9  1  1
  4 10  1  0
  8 10  1  0
  7 11  1  0
 10 12  1  0
  7 13  1  0
  8 14  2  0
 11 15  1  1
 12 16  1  0
 13 17  1  0
 17 18  1  6
 11 19  1  0
 17 20  1  0
 19 20  1  0
 18 21  2  0
 18 22  1  0
 16 23  1  0
M  END
$$$$
11
     RDKit          3D

 17 18  0  0  0  0  0  0  0  0999 V2000
   56.0267   17.9876   33.9524 O   0  0  0  0  0  0  0  0  0  0  0  0
   56.9684   17.9993   33.0146 C   0  0  0  0  0  0  0  0  0  0  0  0
   56.7467   17.2623   31.7573 N   0  0  0  0  0  0  0  0  0  0  0  0
   58.2935   18.3560   33.1509 C   0  0  0  0  0  0  0  0  0  0  0  0
   57.7296   17.1567   30.7770 C   0  0  1  0  0  0  0  0  0  0  0  0
   55.5056   16.6538   31.4677 C   0  0  1  0  0  0  0  0  0  0  0  0
   54.6862   17.2332   30.5532 C   0  0  2  0  0  0  0  0  0  0  0  0
   58.8362   18.2188   31.0271 C   0  0  2  0  0  0  0  0  0  0  0  0
   58.3736   15.9568   30.5456 O   0  0  0  0  0  0  0  0  0  0  0  0
   58.8939   19.0502   32.0617 N   0  0  0  0  0  0  0  0  0  0  0  0
   60.1697   19.6889   32.4512 C   0  0  0  0  0  0  0  0  0  0  0  0
   55.6721   15.1521   31.0766 C   0  0  0  0  0  0  0  0  0  0  0  0
   54.2386   14.6570   30.8014 C   0  0  0  0  0  0  0  0  0  0  0  0
   53.6228   15.4971   30.0586 C   0  0  0  0  0  0  0  0  0  0  0  0
   55.0271   18.6871   30.4233 C   0  0  0  0  0  0  0  0  0  0  0  0
   59.0168   18.4723   29.5434 O   0  0  0  0  0  0  0  0  0  0  0  0
   53.5938   16.7704   30.0401 C   0  0  0  0  0  0  0  0  0  0  0  0
  1  2  2  0
  2  3  1  0
  2  4  1  0
  3  5  1  0
  6  3  1  6
  6  7  1  0
  5  8  1  0
  5  9  1  1
  4 10  1  0
  8 10  1  0
 10 11  1  0
  6 12  1  0
 12 13  1  0
 13 14  1  0
  7 15  1  1
  8 16  1  6
  7 17  1  0
 14 17  1  0
M  END
$$$$
12
     RDKit          3D

 17 17  0  0  0  0  0  0  0  0999 V2000
   58.5520   18.1060   29.2833 N   0  0  0  0  0  0  0  0  0  0  0  0
   57.4743   18.3428   29.8996 C   0  0  1  0  0  0  0  0  0  0  0  0
   56.9766   17.3130   30.6500 C   0  0  0  0  0  0  0  0  0  0  0  0
   56.6042   17.6932   32.0691 N   0  0  0  0  0  0  0  0  0  0  0  0
   56.7281   16.0311   30.3856 C   0  0  0  0  0  0  0  0  0  0  0  0
   57.6970   19.5614   30.8354 C   0  0  1  0  0  0  0  0  0  0  0  0
   57.3891   15.5210   29.5560 O   0  0  0  0  0  0  0  0  0  0  0  0
   56.9985   19.2225   32.1313 C   0  0  1  0  0  0  0  0  0  0  0  0
   55.9819   15.2467   31.2308 O   0  0  0  0  0  0  0  0  0  0  0  0
   58.9894   19.9263   31.2731 O   0  0  0  0  0  0  0  0  0  0  0  0
   54.6934   14.6916   30.6281 C   0  0  0  0  0  0  0  0  0  0  0  0
   55.8761   19.8939   32.3935 O   0  0  0  0  0  0  0  0  0  0  0  0
   56.2773   16.9725   33.1109 O   0  0  0  0  0  0  0  0  0  0  0  0
   53.8051   15.8512   30.4367 C   0  0  0  0  0  0  0  0  0  0  0  0
   52.9168   15.7136   29.2504 C   0  0  0  0  0  0  0  0  0  0  0  0
   51.5026   15.7235   29.4219 C   0  0  0  0  0  0  0  0  0  0  0  0
   50.8980   17.1414   30.0773 C   0  0  0  0  0  0  0  0  0  0  0  0
  2  1  1  1
  2  3  1  0
  3  4  1  0
  3  5  1  0
  2  6  1  0
  5  7  2  0
  4  8  1  0
  6  8  1  0
  5  9  1  0
  6 10  1  1
  9 11  1  0
  8 12  1  6
  4 13  1  0
 11 14  1  0
 14 15  1  0
 15 16  1  0
 16 17  1  0
M  END
$$$$
13
     RDKit          3D

 17 19  0  0  0  0  0  0  0  0999 V2000
   56.4766   17.7436   34.0590 O   0  0  0  0  0  0  0  0  0  0  0  0
   57.1822   17.7567   33.1109 C   0  0  0  0  0  0  0  0  0  0  0  0
   58.2935   18.4888   32.9964 N   0  0  0  0  0  0  0  0  0  0  0  0
   59.2033   18.5656   31.8973 C   0  0  2  0  0  0  0  0  0  0  0  0
   59.9573   19.6651   31.9855 O   0  0  0  0  0  0  0  0  0  0  0  0
   59.1487   17.9228   30.7194 C   0  0  1  0  0  0  0  0  0  0  0  0
   57.1977   16.7980   31.8756 C   0  0  1  0  0  0  0  0  0  0  0  0
   60.1739   20.4060   33.2004 C   0  0  0  0  0  0  0  0  0  0  0  0
   57.9268   17.0260   30.7224 C   0  0  1  0  0  0  0  0  0  0  0  0
   59.1283   18.7110   29.5525 O   0  0  0  0  0  0  0  0  0  0  0  0
   57.5708   15.3934   32.3420 C   0  0  0  0  0  0  0  0  0  0  0  0
   58.6443   14.8465   31.4815 O   0  0  0  0  0  0  0  0  0  0  0  0
   55.6776   16.4209   31.8505 O   0  0  0  0  0  0  0  0  0  0  0  0
   57.0707   17.9415   29.7394 C   0  0  0  0  0  0  0  0  0  0  0  0
   57.9626   18.8960   29.1870 C   0  0  0  0  0  0  0  0  0  0  0  0
   58.6891   18.9647   34.3424 O   0  0  0  0  0  0  0  0  0  0  0  0
   59.9903   19.1992   34.2259 C   0  0  0  0  0  0  0  0  0  0  0  0
  1  2  2  0
  2  3  1  0
  3  4  1  0
  4  5  1  6
  4  6  1  0
  2  7  1  0
  5  8  1  0
  6  9  1  0
  7  9  1  0
  6 10  1  6
  7 11  1  0
 11 12  1  0
  7 13  1  6
  9 14  1  6
 10 15  1  0
 14 15  1  0
  3 16  1  0
  8 17  1  0
 16 17  1  0
M  END
$$$$
14
     RDKit          3D

 17 18  0  0  0  0  0  0  0  0999 V2000
   56.4766   17.7436   34.0590 O   0  0  0  0  0  0  0  0  0  0  0  0
   57.1822   17.7567   33.1109 C   0  0  0  0  0  0  0  0  0  0  0  0
   58.2935   18.4888   32.9964 N   0  0  0  0  0  0  0  0  0  0  0  0
   59.2033   18.5656   31.8973 C   0  0  2  0  0  0  0  0  0  0  0  0
   59.9573   19.6651   31.9855 O   0  0  0  0  0  0  0  0  0  0  0  0
   59.1487   17.9228   30.7194 C   0  0  1  0  0  0  0  0  0  0  0  0
   57.1977   16.7980   31.8756 C   0  0  1  0  0  0  0  0  0  0  0  0
   60.1739   20.4060   33.2004 C   0  0  0  0  0  0  0  0  0  0  0  0
   57.9268   17.0260   30.7224 C   0  0  1  0  0  0  0  0  0  0  0  0
   59.1283   18.7110   29.5525 O   0  0  0  0  0  0  0  0  0  0  0  0
   57.5708   15.3934   32.3420 C   0  0  0  0  0  0  0  0  0  0  0  0
   58.6443   14.8465   31.4815 O   0  0  0  0  0  0  0  0  0  0  0  0
   55.6776   16.4209   31.8505 O   0  0  0  0  0  0  0  0  0  0  0  0
   57.0707   17.9415   29.7394 C   0  0  0  0  0  0  0  0  0  0  0  0
   56.0701   17.3962   29.0830 O   0  0  0  0  0  0  0  0  0  0  0  0
   58.7062   19.4051   34.1086 C   0  0  0  0  0  0  0  0  0  0  0  0
   59.8133   19.9412   34.3334 C   0  0  0  0  0  0  0  0  0  0  0  0
  1  2  2  0
  2  3  1  0
  3  4  1  0
  4  5  1  6
  4  6  1  0
  2  7  1  0
  5  8  1  0
  6  9  1  0
  7  9  1  0
  6 10  1  6
  7 11  1  0
 11 12  1  0
  7 13  1  6
  9 14  1  6
 14 15  1  0
  3 16  1  0
  8 17  1  0
 16 17  1  0
M  END
$$$$
15
     RDKit          3D

 18 19  0  0  0  0  0  0  0  0999 V2000
   56.0267   17.9876   33.9524 O   0  0  0  0  0  0  0  0  0  0  0  0
   56.9684   17.9993   33.0146 C   0  0  0  0  0  0  0  0  0  0  0  0
   56.7467   17.2623   31.7573 N   0  0  0  0  0  0  0  0  0  0  0  0
   58.2935   18.3560   33.1509 C   0  0  0  0  0  0  0  0  0  0  0  0
   57.7296   17.1567   30.7770 C   0  0  1  0  0  0  0  0  0  0  0  0
   55.5056   16.6538   31.4677 C   0  0  0  0  0  0  0  0  0  0  0  0
   54.6862   17.2332   30.5532 C   0  0  0  0  0  0  0  0  0  0  0  0
   58.8362   18.2188   31.0271 C   0  0  0  0  0  0  0  0  0  0  0  0
   58.3736   15.9568   30.5456 O   0  0  0  0  0  0  0  0  0  0  0  0
   58.8939   19.0502   32.0617 N   0  0  0  0  0  0  0  0  0  0  0  0
   60.1697   19.6889   32.4512 C   0  0  0  0  0  0  0  0  0  0  0  0
   55.6721   15.1521   31.0766 C   0  0  0  0  0  0  0  0  0  0  0  0
   54.2386   14.6570   30.8014 C   0  0  0  0  0  0  0  0  0  0  0  0
   59.6765   18.4147   29.9932 O   0  0  0  0  0  0  0  0  0  0  0  0
   59.9666   20.4971   33.6181 C   0  0  0  0  0  0  0  0  0  0  0  0
   53.5455   15.3713   29.7878 C   0  0  0  0  0  0  0  0  0  0  0  0
   61.2891   20.6578   34.4597 C   0  0  0  0  0  0  0  0  0  0  0  0
   53.5786   16.7486   29.9243 C   0  0  0  0  0  0  0  0  0  0  0  0
  1  2  2  0
  2  3  1  0
  2  4  1  0
  3  5  1  0
  3  6  1  0
  6  7  1  0
  5  8  1  0
  5  9  1  1
  4 10  1  0
  8 10  1  0
 10 11  1  0
  6 12  1  0
 12 13  1  0
  8 14  2  0
 11 15  1  0
 13 16  1  0
 15 17  1  0
  7 18  1  0
 16 18  1  0
M  END
$$$$
16
     RDKit          3D

 18 19  0  0  0  0  0  0  0  0999 V2000
   58.5520   18.1060   29.2833 N   0  0  0  0  0  0  0  0  0  0  0  0
   57.4743   18.3428   29.8996 C   0  0  1  0  0  0  0  0  0  0  0  0
   56.9766   17.3130   30.6500 C   0  0  0  0  0  0  0  0  0  0  0  0
   56.6042   17.6932   32.0691 N   0  0  0  0  0  0  0  0  0  0  0  0
   56.7281   16.0311   30.3856 C   0  0  0  0  0  0  0  0  0  0  0  0
   57.6970   19.5614   30.8354 C   0  0  2  0  0  0  0  0  0  0  0  0
   57.3891   15.5210   29.5560 O   0  0  0  0  0  0  0  0  0  0  0  0
   56.9985   19.2225   32.1313 C   0  0  0  0  0  0  0  0  0  0  0  0
   55.9693   17.0895   33.0192 O   0  0  0  0  0  0  0  0  0  0  0  0
   56.8485   19.8632   33.2026 O   0  0  0  0  0  0  0  0  0  0  0  0
   55.4125   15.4421   30.5428 N   0  0  0  0  0  0  0  0  0  0  0  0
   56.8677   20.7236   30.4544 O   0  0  0  0  0  0  0  0  0  0  0  0
   54.2357   15.3963   29.9150 C   0  0  0  0  0  0  0  0  0  0  0  0
   53.0781   15.6497   30.4956 C   0  0  0  0  0  0  0  0  0  0  0  0
   51.8534   15.8170   29.6990 C   0  0  0  0  0  0  0  0  0  0  0  0
   54.2521   15.9172   28.5429 C   0  0  0  0  0  0  0  0  0  0  0  0
   51.8991   16.0739   28.4002 C   0  0  0  0  0  0  0  0  0  0  0  0
   53.1724   16.0849   27.7709 C   0  0  0  0  0  0  0  0  0  0  0  0
  2  1  1  1
  2  3  1  0
  3  4  1  0
  3  5  1  0
  2  6  1  0
  5  7  2  0
  4  8  1  0
  6  8  1  0
  4  9  1  0
  8 10  2  0
  5 11  1  0
  6 12  1  6
 11 13  1  0
 13 14  1  0
 14 15  1  0
 13 16  1  0
 15 17  1  0
 16 18  1  0
 17 18  1  0
M  END
$$$$
17
     RDKit          3D

 18 20  0  0  0  0  0  0  0  0999 V2000
   61.1673   12.3367   33.6847 C   0  0  0  0  0  0  0  0  0  0  0  0
   60.3417   13.1827   33.0586 C   0  0  0  0  0  0  0  0  0  0  0  0
   61.6132   12.8008   34.9250 C   0  0  0  0  0  0  0  0  0  0  0  0
   61.3032   14.0192   35.4953 C   0  0  1  0  0  0  0  0  0  0  0  0
   60.1803   14.5198   33.5076 C   0  0  2  0  0  0  0  0  0  0  0  0
   61.9751   14.3831   36.7395 N   0  0  0  0  0  0  0  0  0  0  0  0
   60.6681   14.8988   34.7442 C   0  0  2  0  0  0  0  0  0  0  0  0
   59.3113   15.5578   32.6838 C   0  0  0  0  0  0  0  0  0  0  0  0
   58.7330   15.2840   31.6786 O   0  0  0  0  0  0  0  0  0  0  0  0
   59.2005   16.8839   33.0490 N   0  0  0  0  0  0  0  0  0  0  0  0
   59.7325   17.3780   34.2284 C   0  0  0  0  0  0  0  0  0  0  0  0
   60.4758   16.3740   35.1110 N   0  0  0  0  0  0  0  0  0  0  0  0
   58.5222   17.9213   32.3329 C   0  0  0  0  0  0  0  0  0  0  0  0
   57.3152   18.0723   32.7243 C   0  0  0  0  0  0  0  0  0  0  0  0
   56.5612   19.1374   31.9507 C   0  0  0  0  0  0  0  0  0  0  0  0
   57.3248   20.2825   31.5898 C   0  0  0  0  0  0  0  0  0  0  0  0
   58.6372   19.9942   31.1371 C   0  0  0  0  0  0  0  0  0  0  0  0
   59.4630   19.0093   32.0362 C   0  0  0  0  0  0  0  0  0  0  0  0
  1  2  1  0
  1  3  1  0
  3  4  1  0
  5  2  1  1
  4  6  1  6
  4  7  1  0
  5  7  1  0
  5  8  1  0
  8  9  2  0
  8 10  1  0
 10 11  1  0
  7 12  1  6
 11 12  1  0
 10 13  1  0
 13 14  1  0
 14 15  1  0
 15 16  1  0
 16 17  1  0
 13 18  1  0
 17 18  1  0
M  END
$$$$
18
     RDKit          3D

 18 20  0  0  0  0  0  0  0  0999 V2000
   61.3425   12.5920   33.9078 C   0  0  0  0  0  0  0  0  0  0  0  0
   60.5190   13.0872   33.0766 C   0  0  0  0  0  0  0  0  0  0  0  0
   60.1452   14.3902   33.2775 C   0  0  0  0  0  0  0  0  0  0  0  0
   61.6057   13.2652   35.1528 C   0  0  0  0  0  0  0  0  0  0  0  0
   60.3775   15.0406   34.4679 C   0  0  0  0  0  0  0  0  0  0  0  0
   59.2746   15.0967   32.2513 C   0  0  0  0  0  0  0  0  0  0  0  0
   61.1487   14.4262   35.3310 C   0  0  0  0  0  0  0  0  0  0  0  0
   58.4755   16.0398   32.5623 C   0  0  1  0  0  0  0  0  0  0  0  0
   57.5408   16.4829   31.6809 N   0  0  0  0  0  0  0  0  0  0  0  0
   56.9377   17.6689   31.8446 C   0  0  2  0  0  0  0  0  0  0  0  0
   58.2308   16.6892   33.7687 O   0  0  0  0  0  0  0  0  0  0  0  0
   57.2346   17.7218   33.4326 C   0  0  1  0  0  0  0  0  0  0  0  0
   56.9322   15.6608   30.5738 C   0  0  0  0  0  0  0  0  0  0  0  0
   56.0401   16.2015   29.6628 C   0  0  0  0  0  0  0  0  0  0  0  0
   57.5452   19.2109   33.4089 O   0  0  0  0  0  0  0  0  0  0  0  0
   55.7619   17.8595   31.3724 C   0  0  0  0  0  0  0  0  0  0  0  0
   55.1638   17.2239   30.2960 N   0  0  0  0  0  0  0  0  0  0  0  0
   53.9150   17.5753   29.7080 C   0  0  0  0  0  0  0  0  0  0  0  0
  1  2  1  0
  2  3  1  0
  1  4  1  0
  3  5  1  0
  3  6  1  0
  4  7  1  0
  5  7  1  0
  8  6  1  1
  8  9  1  0
  9 10  1  0
  8 11  1  0
 10 12  1  0
 11 12  1  0
  9 13  1  0
 13 14  1  0
 12 15  1  6
 10 16  1  1
 14 17  1  0
 16 17  1  0
 17 18  1  0
M  END
$$$$
19
     RDKit          3D

 18 20  0  0  0  0  0  0  0  0999 V2000
   56.2842   18.1561   33.9954 O   0  0  0  0  0  0  0  0  0  0  0  0
   57.1336   18.1061   33.0700 C   0  0  0  0  0  0  0  0  0  0  0  0
   57.1036   17.3336   31.8228 N   0  0  0  0  0  0  0  0  0  0  0  0
   58.0925   19.1780   32.9210 C   0  0  2  0  0  0  0  0  0  0  0  0
   58.0813   17.5944   30.8297 C   0  0  0  0  0  0  0  0  0  0  0  0
   56.5209   15.9539   31.4985 C   0  0  2  0  0  0  0  0  0  0  0  0
   57.6827   17.2535   29.6571 C   0  0  0  0  0  0  0  0  0  0  0  0
   56.6256   16.1885   29.6315 C   0  0  2  0  0  0  0  0  0  0  0  0
   58.9534   18.7270   31.2545 C   0  0  2  0  0  0  0  0  0  0  0  0
   55.1271   15.8894   31.8210 O   0  0  0  0  0  0  0  0  0  0  0  0
   54.4199   15.1352   30.9315 C   0  0  0  0  0  0  0  0  0  0  0  0
   60.2740   18.5159   31.3129 N   0  0  0  0  0  0  0  0  0  0  0  0
   58.7231   20.1319   33.5893 C   0  0  0  0  0  0  0  0  0  0  0  0
   54.5714   15.6789   29.5064 C   0  0  0  0  0  0  0  0  0  0  0  0
   55.4683   16.3458   29.1249 O   0  0  0  0  0  0  0  0  0  0  0  0
   53.5350   15.2930   28.5001 C   0  0  0  0  0  0  0  0  0  0  0  0
   59.3031   19.8556   34.7400 O   0  0  0  0  0  0  0  0  0  0  0  0
   60.6376   20.4093   34.9492 C   0  0  0  0  0  0  0  0  0  0  0  0
  1  2  2  0
  2  3  1  0
  2  4  1  0
  3  5  1  0
  3  6  1  0
  5  7  2  0
  6  8  1  0
  7  8  1  0
  4  9  1  0
  5  9  1  0
  6 10  1  6
 10 11  1  0
  9 12  1  1
  4 13  1  1
 11 14  1  0
  8 15  1  1
 14 15  1  0
 14 16  1  0
 13 17  1  0
 17 18  1  0
M  END
$$$$
2
     RDKit          3D

 11 11  0  0  0  0  0  0  0  0999 V2000
   61.1673   12.3367   33.6847 C   0  0  0  0  0  0  0  0  0  0  0  0
   61.5392   12.8882   34.9135 C   0  0  0  0  0  0  0  0  0  0  0  0
   60.9926   14.0715   35.3739 C   0  0  1  0  0  0  0  0  0  0  0  0
   60.3012   13.1023   32.8208 C   0  0  0  0  0  0  0  0  0  0  0  0
   61.4451   14.6798   36.5706 O   0  0  0  0  0  0  0  0  0  0  0  0
   60.0818   14.8443   34.5123 C   0  0  0  0  0  0  0  0  0  0  0  0
   62.5651   15.5694   36.4045 C   0  0  0  0  0  0  0  0  0  0  0  0
   59.8570   14.3584   33.3751 C   0  0  2  0  0  0  0  0  0  0  0  0
   58.8989   15.0675   32.4530 C   0  0  0  0  0  0  0  0  0  0  0  0
   58.9362   15.2368   31.1829 O   0  0  0  0  0  0  0  0  0  0  0  0
   57.7536   15.7240   32.9792 O   0  0  0  0  0  0  0  0  0  0  0  0
  1  2  1  0
  2  3  1  0
  1  4  1  0
  3  5  1  6
  3  6  1  0
  5  7  1  0
  4  8  1  0
  6  8  1  0
  8  9  1  1
  9 10  1  0
  9 11  2  0
M  END
$$$$
20
     RDKit          3D

 18 19  0  0  0  0  0  0  0  0999 V2000
   59.1437   17.9996   29.8543 N   0  0  0  0  0  0  0  0  0  0  0  0
   59.1515   17.8827   31.1173 C   0  0  1  0  0  0  0  0  0  0  0  0
   60.1734   18.4201   31.8012 N   0  0  0  0  0  0  0  0  0  0  0  0
   57.8805   18.5610   31.6969 C   0  0  1  0  0  0  0  0  0  0  0  0
   60.4058   19.4359   32.4424 C   0  0  0  0  0  0  0  0  0  0  0  0
   56.5282   18.0565   31.5057 C   0  0  1  0  0  0  0  0  0  0  0  0
   59.3014   20.0892   33.0399 C   0  0  0  0  0  0  0  0  0  0  0  0
   58.0526   19.6598   32.6852 C   0  0  0  0  0  0  0  0  0  0  0  0
   55.5484   18.8147   31.1532 O   0  0  0  0  0  0  0  0  0  0  0  0
   56.4485   16.8339   31.0299 O   0  0  0  0  0  0  0  0  0  0  0  0
   55.3078   19.1226   29.7770 C   0  0  1  0  0  0  0  0  0  0  0  0
   55.4775   16.1586   30.6515 C   0  0  0  0  0  0  0  0  0  0  0  0
   54.1362   18.4753   29.3175 C   0  0  1  0  0  0  0  0  0  0  0  0
   53.5680   18.8699   28.2233 O   0  0  0  0  0  0  0  0  0  0  0  0
   54.2957   16.9585   29.4160 C   0  0  2  0  0  0  0  0  0  0  0  0
   53.0706   16.2325   29.4414 O   0  0  0  0  0  0  0  0  0  0  0  0
   55.5273   20.4156   29.2652 C   0  0  0  0  0  0  0  0  0  0  0  0
   54.8405   21.4014   30.1211 O   0  0  0  0  0  0  0  0  0  0  0  0
  2  1  1  6
  2  3  1  0
  2  4  1  0
  3  5  1  0
  4  6  1  0
  5  7  1  0
  4  8  1  1
  7  8  1  0
  6  9  1  6
  6 10  1  0
  9 11  1  0
 10 12  1  0
 11 13  1  0
 13 14  1  6
 12 15  1  0
 13 15  1  0
 15 16  1  1
 11 17  1  1
 17 18  1  0
M  END
$$$$
21
     RDKit          3D

 18 20  0  0  0  0  0  0  0  0999 V2000
   61.3425   12.5920   33.9078 C   0  0  0  0  0  0  0  0  0  0  0  0
   60.5190   13.0872   33.0766 C   0  0  0  0  0  0  0  0  0  0  0  0
   60.1452   14.3902   33.2775 C   0  0  0  0  0  0  0  0  0  0  0  0
   61.6057   13.2652   35.1528 C   0  0  0  0  0  0  0  0  0  0  0  0
   60.3775   15.0406   34.4679 C   0  0  0  0  0  0  0  0  0  0  0  0
   59.2746   15.0967   32.2513 C   0  0  0  0  0  0  0  0  0  0  0  0
   61.1487   14.4262   35.3310 C   0  0  0  0  0  0  0  0  0  0  0  0
   58.4755   16.0398   32.5623 C   0  0  1  0  0  0  0  0  0  0  0  0
   57.5408   16.4829   31.6809 N   0  0  0  0  0  0  0  0  0  0  0  0
   56.9377   17.6689   31.8446 C   0  0  2  0  0  0  0  0  0  0  0  0
   58.2308   16.6892   33.7687 O   0  0  0  0  0  0  0  0  0  0  0  0
   57.2346   17.7218   33.4326 C   0  0  1  0  0  0  0  0  0  0  0  0
   56.9322   15.6608   30.5738 C   0  0  0  0  0  0  0  0  0  0  0  0
   56.0401   16.2015   29.6628 C   0  0  1  0  0  0  0  0  0  0  0  0
   55.3289   15.3035   28.8080 C   0  0  0  0  0  0  0  0  0  0  0  0
   57.4613   19.1400   33.5533 O   0  0  0  0  0  0  0  0  0  0  0  0
   55.7028   17.9029   31.4502 C   0  0  0  0  0  0  0  0  0  0  0  0
   55.2497   17.3404   30.2346 C   0  0  0  0  0  0  0  0  0  0  0  0
  1  2  1  0
  2  3  1  0
  1  4  1  0
  3  5  1  0
  3  6  1  0
  4  7  1  0
  5  7  1  0
  8  6  1  1
  8  9  1  0
  9 10  1  0
  8 11  1  0
 10 12  1  0
 11 12  1  0
  9 13  1  0
 13 14  1  0
 14 15  1  1
 12 16  1  6
 10 17  1  1
 14 18  1  0
 17 18  1  0
M  END
$$$$
22
     RDKit          3D

 18 20  0  0  0  0  0  0  0  0999 V2000
   61.1673   12.3367   33.6847 C   0  0  0  0  0  0  0  0  0  0  0  0
   60.3417   13.1827   33.0586 C   0  0  0  0  0  0  0  0  0  0  0  0
   61.6335   12.6619   34.9653 C   0  0  0  0  0  0  0  0  0  0  0  0
   61.3247   13.8773   35.5868 C   0  0  0  0  0  0  0  0  0  0  0  0
   60.5883   14.7775   34.8377 C   0  0  0  0  0  0  0  0  0  0  0  0
   60.2013   14.4517   33.6277 C   0  0  0  0  0  0  0  0  0  0  0  0
   59.3404   15.5468   32.8500 C   0  0  2  0  0  0  0  0  0  0  0  0
   59.0115   15.4472   31.6080 N   0  0  0  0  0  0  0  0  0  0  0  0
   58.9746   16.7462   33.4873 N   0  0  0  0  0  0  0  0  0  0  0  0
   58.4415   17.6474   33.0638 C   0  0  1  0  0  0  0  0  0  0  0  0
   58.2778   16.4076   30.9511 C   0  0  2  0  0  0  0  0  0  0  0  0
   57.9635   17.6250   31.6388 C   0  0  2  0  0  0  0  0  0  0  0  0
   57.6439   16.0721   29.5886 C   0  0  0  0  0  0  0  0  0  0  0  0
   58.0604   18.9354   33.8772 O   0  0  0  0  0  0  0  0  0  0  0  0
   59.1673   19.7139   33.7737 C   0  0  0  0  0  0  0  0  0  0  0  0
   56.9711   17.1049   29.0040 C   0  0  0  0  0  0  0  0  0  0  0  0
   57.3997   18.9290   31.1334 C   0  0  0  0  0  0  0  0  0  0  0  0
   56.7214   18.4829   29.8273 C   0  0  0  0  0  0  0  0  0  0  0  0
  1  2  1  0
  1  3  1  0
  3  4  1  0
  4  5  1  0
  2  6  1  0
  5  6  1  0
  7  6  1  6
  7  8  1  0
  7  9  1  0
  9 10  1  0
  8 11  1  0
 10 12  1  0
 11 12  1  0
 11 13  1  1
 10 14  1  1
 14 15  1  0
 13 16  1  0
 12 17  1  6
 16 18  1  0
 17 18  1  0
M  END
$$$$
23
     RDKit          3D

 18 19  0  0  0  0  0  0  0  0999 V2000
   56.0267   17.9876   33.9524 O   0  0  0  0  0  0  0  0  0  0  0  0
   56.9684   17.9993   33.0146 C   0  0  0  0  0  0  0  0  0  0  0  0
   56.7467   17.2623   31.7573 N   0  0  0  0  0  0  0  0  0  0  0  0
   58.2935   18.3560   33.1509 C   0  0  0  0  0  0  0  0  0  0  0  0
   57.7296   17.1567   30.7770 C   0  0  1  0  0  0  0  0  0  0  0  0
   55.5056   16.6538   31.4677 C   0  0  0  0  0  0  0  0  0  0  0  0
   54.6862   17.2332   30.5532 C   0  0  0  0  0  0  0  0  0  0  0  0
   58.8362   18.2188   31.0271 C   0  0  0  0  0  0  0  0  0  0  0  0
   58.3736   15.9568   30.5456 O   0  0  0  0  0  0  0  0  0  0  0  0
   58.8939   19.0502   32.0617 N   0  0  0  0  0  0  0  0  0  0  0  0
   54.8942   18.4966   30.0788 C   0  0  0  0  0  0  0  0  0  0  0  0
   60.1891   19.6857   32.4487 C   0  0  0  0  0  0  0  0  0  0  0  0
   53.5985   16.3125   30.0800 C   0  0  0  0  0  0  0  0  0  0  0  0
   59.6915   18.4077   30.0014 O   0  0  0  0  0  0  0  0  0  0  0  0
   52.6782   16.8556   29.1287 C   0  0  0  0  0  0  0  0  0  0  0  0
   59.0245   18.2794   34.2728 O   0  0  0  0  0  0  0  0  0  0  0  0
   53.8763   19.0144   29.1493 C   0  0  0  0  0  0  0  0  0  0  0  0
   52.8188   18.1892   28.6674 C   0  0  0  0  0  0  0  0  0  0  0  0
  1  2  2  0
  2  3  1  0
  2  4  1  0
  3  5  1  0
  3  6  1  0
  6  7  1  0
  5  8  1  0
  5  9  1  1
  4 10  1  0
  8 10  1  0
  7 11  1  0
 10 12  1  0
  7 13  1  0
  8 14  2  0
 13 15  1  0
  4 16  2  0
 11 17  1  0
 15 18  1  0
 17 18  1  0
M  END
$$$$
24
     RDKit          3D

 18 20  0  0  0  0  0  0  0  0999 V2000
   60.4361   12.9922   32.7047 C   0  0  0  0  0  0  0  0  0  0  0  0
   61.1585   12.9365   33.8689 C   0  0  0  0  0  0  0  0  0  0  0  0
   59.8725   14.2256   32.7982 C   0  0  2  0  0  0  0  0  0  0  0  0
   61.0778   13.8407   34.8522 C   0  0  0  0  0  0  0  0  0  0  0  0
   60.3026   14.9043   34.3069 C   0  0  0  0  0  0  0  0  0  0  0  0
   59.9766   16.0881   34.7930 C   0  0  0  0  0  0  0  0  0  0  0  0
   58.9421   15.1368   32.2197 C   0  0  0  0  0  0  0  0  0  0  0  0
   59.1300   16.8985   33.8892 C   0  0  0  0  0  0  0  0  0  0  0  0
   58.8147   18.2126   34.3204 O   0  0  0  0  0  0  0  0  0  0  0  0
   58.6026   16.4874   32.6783 C   0  0  2  0  0  0  0  0  0  0  0  0
   57.6135   17.2162   31.8157 C   0  0  1  0  0  0  0  0  0  0  0  0
   57.2372   16.7784   30.6360 O   0  0  0  0  0  0  0  0  0  0  0  0
   56.1681   17.2004   30.0572 C   0  0  2  0  0  0  0  0  0  0  0  0
   59.0463   19.2391   33.3443 C   0  0  0  0  0  0  0  0  0  0  0  0
   56.3464   17.4785   32.4849 O   0  0  0  0  0  0  0  0  0  0  0  0
   55.4318   17.4212   31.5033 C   0  0  0  0  0  0  0  0  0  0  0  0
   55.3413   16.3018   29.3244 C   0  0  0  0  0  0  0  0  0  0  0  0
   55.1654   15.0627   30.1608 O   0  0  0  0  0  0  0  0  0  0  0  0
  1  2  1  0
  3  1  1  1
  2  4  1  0
  3  5  1  0
  4  5  1  0
  5  6  1  0
  3  7  1  0
  6  8  1  0
  8  9  1  0
 10  7  1  1
  8 10  1  0
 10 11  1  0
 11 12  1  6
 12 13  1  0
  9 14  1  0
 11 15  1  0
 13 16  1  0
 15 16  1  0
 13 17  1  6
 17 18  1  0
M  END
$$$$
25
     RDKit          3D

 18 20  0  0  0  0  0  0  0  0999 V2000
   61.1673   12.3367   33.6847 C   0  0  0  0  0  0  0  0  0  0  0  0
   60.3417   13.1827   33.0586 C   0  0  0  0  0  0  0  0  0  0  0  0
   61.6335   12.6619   34.9653 C   0  0  0  0  0  0  0  0  0  0  0  0
   61.3247   13.8773   35.5868 C   0  0  0  0  0  0  0  0  0  0  0  0
   60.5883   14.7775   34.8377 C   0  0  0  0  0  0  0  0  0  0  0  0
   60.2013   14.4517   33.6277 C   0  0  0  0  0  0  0  0  0  0  0  0
   59.3404   15.5468   32.8500 C   0  0  2  0  0  0  0  0  0  0  0  0
   59.0115   15.4472   31.6080 N   0  0  0  0  0  0  0  0  0  0  0  0
   58.9746   16.7462   33.4873 N   0  0  0  0  0  0  0  0  0  0  0  0
   58.4415   17.6474   33.0638 C   0  0  1  0  0  0  0  0  0  0  0  0
   58.2778   16.4076   30.9511 C   0  0  2  0  0  0  0  0  0  0  0  0
   57.9635   17.6250   31.6388 C   0  0  2  0  0  0  0  0  0  0  0  0
   57.6439   16.0721   29.5886 C   0  0  0  0  0  0  0  0  0  0  0  0
   58.0604   18.9354   33.8772 O   0  0  0  0  0  0  0  0  0  0  0  0
   59.1673   19.7139   33.7737 C   0  0  0  0  0  0  0  0  0  0  0  0
   56.9711   17.1049   29.0040 N   0  0  0  0  0  0  0  0  0  0  0  0
   56.8998   18.3948   29.6173 C   0  0  0  0  0  0  0  0  0  0  0  0
   57.3609   18.5683   30.8941 C   0  0  0  0  0  0  0  0  0  0  0  0
  1  2  1  0
  1  3  1  0
  3  4  1  0
  4  5  1  0
  2  6  1  0
  5  6  1  0
  7  6  1  6
  7  8  1  0
  7  9  1  0
  9 10  1  0
  8 11  1  0
 10 12  1  0
 11 12  1  0
 11 13  1  1
 10 14  1  1
 14 15  1  0
 13 16  1  0
 16 17  1  0
 12 18  1  6
 17 18  1  0
M  END
$$$$
26
     RDKit          3D

 18 20  0  0  0  0  0  0  0  0999 V2000
   56.4766   17.7436   34.0590 O   0  0  0  0  0  0  0  0  0  0  0  0
   57.1822   17.7567   33.1109 C   0  0  0  0  0  0  0  0  0  0  0  0
   58.2935   18.4888   32.9964 N   0  0  0  0  0  0  0  0  0  0  0  0
   59.2033   18.5656   31.8973 C   0  0  2  0  0  0  0  0  0  0  0  0
   59.9573   19.6651   31.9855 O   0  0  0  0  0  0  0  0  0  0  0  0
   59.1487   17.9228   30.7194 C   0  0  1  0  0  0  0  0  0  0  0  0
   57.1977   16.7980   31.8756 C   0  0  1  0  0  0  0  0  0  0  0  0
   60.1739   20.4060   33.2004 C   0  0  2  0  0  0  0  0  0  0  0  0
   57.9268   17.0260   30.7224 C   0  0  1  0  0  0  0  0  0  0  0  0
   59.1283   18.7110   29.5525 O   0  0  0  0  0  0  0  0  0  0  0  0
   57.5708   15.3934   32.3420 C   0  0  0  0  0  0  0  0  0  0  0  0
   58.6443   14.8465   31.4815 O   0  0  0  0  0  0  0  0  0  0  0  0
   55.6776   16.4209   31.8505 O   0  0  0  0  0  0  0  0  0  0  0  0
   57.0707   17.9415   29.7394 C   0  0  0  0  0  0  0  0  0  0  0  0
   57.9626   18.8960   29.1870 C   0  0  0  0  0  0  0  0  0  0  0  0
   58.5956   19.2586   34.2675 C   0  0  0  0  0  0  0  0  0  0  0  0
   61.5086   21.0253   33.1486 C   0  0  0  0  0  0  0  0  0  0  0  0
   59.9748   19.5991   34.3480 C   0  0  0  0  0  0  0  0  0  0  0  0
  1  2  2  0
  2  3  1  0
  3  4  1  0
  4  5  1  6
  4  6  1  0
  2  7  1  0
  5  8  1  0
  6  9  1  0
  7  9  1  0
  6 10  1  6
  7 11  1  0
 11 12  1  0
  7 13  1  6
  9 14  1  6
 10 15  1  0
 14 15  1  0
  3 16  1  0
  8 17  1  6
  8 18  1  0
 16 18  1  0
M  END
$$$$
27
     RDKit          3D

 18 20  0  0  0  0  0  0  0  0999 V2000
   61.1673   12.3367   33.6847 C   0  0  0  0  0  0  0  0  0  0  0  0
   60.3417   13.1827   33.0586 C   0  0  0  0  0  0  0  0  0  0  0  0
   61.6335   12.6619   34.9653 C   0  0  0  0  0  0  0  0  0  0  0  0
   61.3247   13.8773   35.5868 C   0  0  0  0  0  0  0  0  0  0  0  0
   60.5883   14.7775   34.8377 C   0  0  0  0  0  0  0  0  0  0  0  0
   60.2013   14.4517   33.6277 C   0  0  0  0  0  0  0  0  0  0  0  0
   59.3404   15.5468   32.8500 C   0  0  2  0  0  0  0  0  0  0  0  0
   59.0115   15.4472   31.6080 N   0  0  0  0  0  0  0  0  0  0  0  0
   58.9746   16.7462   33.4873 N   0  0  0  0  0  0  0  0  0  0  0  0
   58.4415   17.6474   33.0638 C   0  0  0  0  0  0  0  0  0  0  0  0
   58.2778   16.4076   30.9511 C   0  0  1  0  0  0  0  0  0  0  0  0
   58.0840   18.8763   33.7135 O   0  0  0  0  0  0  0  0  0  0  0  0
   58.0243   17.6360   31.6109 C   0  0  1  0  0  0  0  0  0  0  0  0
   57.2572   18.7678   30.9237 C   0  0  2  0  0  0  0  0  0  0  0  0
   57.6587   19.0842   29.6909 C   0  0  0  0  0  0  0  0  0  0  0  0
   57.3995   20.1348   31.8225 C   0  0  0  0  0  0  0  0  0  0  0  0
   58.3814   18.0346   29.0815 N   0  0  0  0  0  0  0  0  0  0  0  0
   58.1923   16.6328   29.4535 C   0  0  0  0  0  0  0  0  0  0  0  0
  1  2  1  0
  1  3  1  0
  3  4  1  0
  4  5  1  0
  2  6  1  0
  5  6  1  0
  7  6  1  6
  7  8  1  0
  7  9  1  0
  9 10  1  0
  8 11  1  0
 10 12  2  0
 13 10  1  1
 11 13  1  0
 13 14  1  0
 14 15  1  0
 14 16  1  1
 15 17  1  0
 11 18  1  6
 17 18  1  0
M  END
$$$$
28
     RDKit          3D

 18 19  0  0  0  0  0  0  0  0999 V2000
   56.4766   17.7436   34.0590 O   0  0  0  0  0  0  0  0  0  0  0  0
   57.1822   17.7567   33.1109 C   0  0  0  0  0  0  0  0  0  0  0  0
   58.2935   18.4888   32.9964 N   0  0  0  0  0  0  0  0  0  0  0  0
   59.2033   18.5656   31.8973 C   0  0  2  0  0  0  0  0  0  0  0  0
   59.9573   19.6651   31.9855 O   0  0  0  0  0  0  0  0  0  0  0  0
   59.1487   17.9228   30.7194 C   0  0  1  0  0  0  0  0  0  0  0  0
   57.1977   16.7980   31.8756 C   0  0  0  0  0  0  0  0  0  0  0  0
   60.1739   20.4060   33.2004 C   0  0  0  0  0  0  0  0  0  0  0  0
   56.2477   15.9291   31.8250 C   0  0  0  0  0  0  0  0  0  0  0  0
   54.9579   16.2715   31.1107 C   0  0  2  0  0  0  0  0  0  0  0  0
   53.9671   15.2120   30.9016 C   0  0  0  0  0  0  0  0  0  0  0  0
   58.1204   16.9426   30.8116 N   0  0  0  0  0  0  0  0  0  0  0  0
   54.8711   17.4504   30.3999 C   0  0  0  0  0  0  0  0  0  0  0  0
   58.7683   18.2716   29.4334 N   0  0  0  0  0  0  0  0  0  0  0  0
   53.9461   17.7637   29.6283 C   0  0  1  0  0  0  0  0  0  0  0  0
   53.0501   15.5804   29.8878 C   0  0  0  0  0  0  0  0  0  0  0  0
   53.8587   19.0799   28.9870 C   0  0  0  0  0  0  0  0  0  0  0  0
   52.9834   16.7862   29.2744 C   0  0  0  0  0  0  0  0  0  0  0  0
  1  2  2  0
  2  3  1  0
  3  4  1  0
  4  5  1  6
  4  6  1  0
  2  7  1  0
  5  8  1  0
  7  9  1  0
 10  9  1  6
 10 11  1  0
  6 12  1  0
  7 12  2  0
 10 13  1  0
  6 14  1  6
 13 15  1  0
 11 16  1  0
 15 17  1  6
 15 18  1  0
 16 18  1  0
M  END
$$$$
29
     RDKit          3D

 19 21  0  0  0  0  0  0  0  0999 V2000
   56.0267   17.9876   33.9524 O   0  0  0  0  0  0  0  0  0  0  0  0
   56.9684   17.9993   33.0146 C   0  0  0  0  0  0  0  0  0  0  0  0
   56.7467   17.2623   31.7573 N   0  0  0  0  0  0  0  0  0  0  0  0
   58.2935   18.3560   33.1509 C   0  0  1  0  0  0  0  0  0  0  0  0
   57.7296   17.1567   30.7770 C   0  0  1  0  0  0  0  0  0  0  0  0
   55.5056   16.6538   31.4677 C   0  0  0  0  0  0  0  0  0  0  0  0
   54.6862   17.2332   30.5532 C   0  0  0  0  0  0  0  0  0  0  0  0
   58.8362   18.2188   31.0271 C   0  0  2  0  0  0  0  0  0  0  0  0
   58.3736   15.9568   30.5456 O   0  0  0  0  0  0  0  0  0  0  0  0
   58.8939   19.0502   32.0617 N   0  0  0  0  0  0  0  0  0  0  0  0
   60.1697   19.6889   32.4512 C   0  0  0  0  0  0  0  0  0  0  0  0
   55.2237   15.4271   31.9057 C   0  0  0  0  0  0  0  0  0  0  0  0
   54.1392   14.6723   31.4405 C   0  0  0  0  0  0  0  0  0  0  0  0
   60.6212   19.5349   33.6343 C   0  0  0  0  0  0  0  0  0  0  0  0
   53.5258   16.5735   30.0278 C   0  0  0  0  0  0  0  0  0  0  0  0
   58.9408   18.9450   29.6404 O   0  0  0  0  0  0  0  0  0  0  0  0
   53.2693   15.3192   30.4824 C   0  0  0  0  0  0  0  0  0  0  0  0
   60.0724   18.8385   34.6584 C   0  0  0  0  0  0  0  0  0  0  0  0
   58.9020   18.5397   34.3934 C   0  0  0  0  0  0  0  0  0  0  0  0
  1  2  2  0
  2  3  1  0
  2  4  1  0
  3  5  1  0
  3  6  1  0
  6  7  1  0
  5  8  1  0
  5  9  1  1
  4 10  1  0
  8 10  1  0
 10 11  1  0
  6 12  1  0
 12 13  1  0
 11 14  1  0
  7 15  1  0
  8 16  1  6
 13 17  1  0
 15 17  1  0
 14 18  1  0
  4 19  1  1
 18 19  1  0
M  END
$$$$
3
     RDKit          3D

 13 13  0  0  0  0  0  0  0  0999 V2000
   58.8377   18.2583   29.8943 N   0  0  0  0  0  0  0  0  0  0  0  0
   57.6941   18.7862   30.0705 C   0  0  1  0  0  0  0  0  0  0  0  0
   57.7231   20.0004   30.5182 C   0  0  0  0  0  0  0  0  0  0  0  0
   56.6477   20.7086   30.7242 C   0  0  0  0  0  0  0  0  0  0  0  0
   56.6085   18.3270   29.3131 N   0  0  0  0  0  0  0  0  0  0  0  0
   56.5887   16.9822   28.8925 C   0  0  0  0  0  0  0  0  0  0  0  0
   55.2483   16.4339   28.8401 C   0  0  0  0  0  0  0  0  0  0  0  0
   57.4783   16.1947   28.8054 O   0  0  0  0  0  0  0  0  0  0  0  0
   55.5047   19.2152   29.3182 C   0  0  0  0  0  0  0  0  0  0  0  0
   55.4624   20.3506   29.9429 C   0  0  0  0  0  0  0  0  0  0  0  0
   54.8064   15.3756   29.7953 C   0  0  0  0  0  0  0  0  0  0  0  0
   53.4058   15.3236   29.9914 C   0  0  0  0  0  0  0  0  0  0  0  0
   52.9964   16.3365   30.7353 O   0  0  0  0  0  0  0  0  0  0  0  0
  2  1  1  6
  2  3  1  0
  3  4  1  0
  2  5  1  0
  5  6  1  0
  6  7  1  0
  6  8  2  0
  5  9  1  0
  4 10  1  0
  9 10  1  0
  7 11  1  0
 11 12  1  0
 12 13  1  0
M  END
$$$$
30
     RDKit          3D

 19 20  0  0  0  0  0  0  0  0999 V2000
   58.4933   17.8007   29.2392 N   0  0  0  0  0  0  0  0  0  0  0  0
   57.7876   17.6622   30.1266 C   0  0  2  0  0  0  0  0  0  0  0  0
   57.6854   18.8976   31.0396 C   0  0  1  0  0  0  0  0  0  0  0  0
   58.2038   16.4912   30.9867 C   0  0  2  0  0  0  0  0  0  0  0  0
   59.5199   16.7391   31.5655 N   0  0  0  0  0  0  0  0  0  0  0  0
   60.0202   15.7500   32.4278 C   0  0  1  0  0  0  0  0  0  0  0  0
   60.8717   16.0354   33.4583 C   0  0  0  0  0  0  0  0  0  0  0  0
   57.9707   15.2477   30.3757 O   0  0  0  0  0  0  0  0  0  0  0  0
   57.1087   18.7910   32.1675 O   0  0  0  0  0  0  0  0  0  0  0  0
   59.5979   14.4727   32.3207 C   0  0  0  0  0  0  0  0  0  0  0  0
   61.1824   14.9737   34.3118 C   0  0  0  0  0  0  0  0  0  0  0  0
   60.0718   13.4102   33.1254 C   0  0  0  0  0  0  0  0  0  0  0  0
   60.8931   13.7923   34.0966 C   0  0  2  0  0  0  0  0  0  0  0  0
   59.0629   19.5018   31.3269 C   0  0  2  0  0  0  0  0  0  0  0  0
   61.4858   12.6835   35.1749 C   0  0  0  0  0  0  0  0  0  0  0  0
   59.4795   19.3105   32.7446 C   0  0  0  0  0  0  0  0  0  0  0  0
   59.0560   20.6997   30.9746 O   0  0  0  0  0  0  0  0  0  0  0  0
   58.0518   18.9768   33.3524 C   0  0  0  0  0  0  0  0  0  0  0  0
   60.5093   19.5884   33.4605 C   0  0  0  0  0  0  0  0  0  0  0  0
  2  1  1  6
  2  3  1  0
  2  4  1  0
  4  5  1  0
  6  5  1  1
  6  7  1  0
  4  8  1  6
  3  9  1  1
  6 10  1  0
  7 11  1  0
 10 12  1  0
 11 13  1  0
 12 13  1  0
  3 14  1  0
 13 15  1  1
 14 16  1  0
 14 17  1  1
  9 18  1  0
 16 18  1  0
 16 19  2  0
M  END
$$$$
31
     RDKit          3D

 19 20  0  0  0  0  0  0  0  0999 V2000
   56.0267   17.9876   33.9524 O   0  0  0  0  0  0  0  0  0  0  0  0
   56.9684   17.9993   33.0146 C   0  0  0  0  0  0  0  0  0  0  0  0
   56.7467   17.2623   31.7573 N   0  0  0  0  0  0  0  0  0  0  0  0
   58.2935   18.3560   33.1509 C   0  0  0  0  0  0  0  0  0  0  0  0
   57.7296   17.1567   30.7770 C   0  0  1  0  0  0  0  0  0  0  0  0
   55.5056   16.6538   31.4677 C   0  0  0  0  0  0  0  0  0  0  0  0
   54.6862   17.2332   30.5532 C   0  0  1  0  0  0  0  0  0  0  0  0
   58.8362   18.2188   31.0271 C   0  0  0  0  0  0  0  0  0  0  0  0
   58.3736   15.9568   30.5456 O   0  0  0  0  0  0  0  0  0  0  0  0
   58.8939   19.0502   32.0617 N   0  0  0  0  0  0  0  0  0  0  0  0
   54.8942   18.4966   30.0788 C   0  0  0  0  0  0  0  0  0  0  0  0
   60.1891   19.6857   32.4487 C   0  0  0  0  0  0  0  0  0  0  0  0
   53.5985   16.3125   30.0800 C   0  0  0  0  0  0  0  0  0  0  0  0
   59.6915   18.4077   30.0014 O   0  0  0  0  0  0  0  0  0  0  0  0
   52.6782   16.8556   29.1287 C   0  0  2  0  0  0  0  0  0  0  0  0
   59.0245   18.2794   34.2728 O   0  0  0  0  0  0  0  0  0  0  0  0
   53.8763   19.0144   29.1493 C   0  0  0  0  0  0  0  0  0  0  0  0
   51.5960   16.0419   28.5805 C   0  0  0  0  0  0  0  0  0  0  0  0
   52.8704   18.1870   28.6554 C   0  0  0  0  0  0  0  0  0  0  0  0
  1  2  2  0
  2  3  1  0
  2  4  1  0
  3  5  1  0
  3  6  1  0
  7  6  1  6
  5  8  1  0
  5  9  1  1
  4 10  1  0
  8 10  1  0
  7 11  1  0
 10 12  1  0
  7 13  1  0
  8 14  2  0
 13 15  1  0
  4 16  2  0
 11 17  1  0
 15 18  1  6
 15 19  1  0
 17 19  1  0
M  END
$$$$
32
     RDKit          3D

 19 21  0  0  0  0  0  0  0  0999 V2000
   61.1673   12.3367   33.6847 C   0  0  0  0  0  0  0  0  0  0  0  0
   60.3417   13.1827   33.0586 C   0  0  0  0  0  0  0  0  0  0  0  0
   61.6335   12.6619   34.9653 C   0  0  0  0  0  0  0  0  0  0  0  0
   61.3247   13.8773   35.5868 C   0  0  0  0  0  0  0  0  0  0  0  0
   60.5883   14.7775   34.8377 C   0  0  0  0  0  0  0  0  0  0  0  0
   60.2013   14.4517   33.6277 C   0  0  0  0  0  0  0  0  0  0  0  0
   59.3404   15.5468   32.8500 C   0  0  2  0  0  0  0  0  0  0  0  0
   59.0115   15.4472   31.6080 N   0  0  0  0  0  0  0  0  0  0  0  0
   58.9746   16.7462   33.4873 N   0  0  0  0  0  0  0  0  0  0  0  0
   58.4415   17.6474   33.0638 C   0  0  1  0  0  0  0  0  0  0  0  0
   58.2778   16.4076   30.9511 C   0  0  2  0  0  0  0  0  0  0  0  0
   57.9635   17.6250   31.6388 C   0  0  2  0  0  0  0  0  0  0  0  0
   57.6439   16.0721   29.5886 C   0  0  0  0  0  0  0  0  0  0  0  0
   58.0604   18.9354   33.8772 O   0  0  0  0  0  0  0  0  0  0  0  0
   59.1673   19.7139   33.7737 C   0  0  0  0  0  0  0  0  0  0  0  0
   56.9711   17.1049   29.0040 C   0  0  0  0  0  0  0  0  0  0  0  0
   57.3997   18.9290   31.1334 C   0  0  0  0  0  0  0  0  0  0  0  0
   56.8695   18.4614   29.7110 N   0  0  0  0  0  0  0  0  0  0  0  0
   57.1644   20.0291   31.4442 O   0  0  0  0  0  0  0  0  0  0  0  0
  1  2  1  0
  1  3  1  0
  3  4  1  0
  4  5  1  0
  2  6  1  0
  5  6  1  0
  7  6  1  6
  7  8  1  0
  7  9  1  0
  9 10  1  0
  8 11  1  0
 10 12  1  0
 11 12  1  0
 11 13  1  1
 10 14  1  1
 14 15  1  0
 13 16  1  0
 12 17  1  6
 16 18  1  0
 17 18  1  0
 17 19  2  0
M  END
$$$$
33
     RDKit          3D

 19 21  0  0  0  0  0  0  0  0999 V2000
   62.8559   13.4076   34.6530 C   0  0  0  0  0  0  0  0  0  0  0  0
   61.7715   12.8503   34.1798 C   0  0  0  0  0  0  0  0  0  0  0  0
   60.6872   13.6593   33.7598 C   0  0  0  0  0  0  0  0  0  0  0  0
   60.8560   14.8978   34.1587 C   0  0  0  0  0  0  0  0  0  0  0  0
   61.9653   15.5021   34.8063 C   0  0  0  0  0  0  0  0  0  0  0  0
   62.8677   14.6314   35.2242 C   0  0  0  0  0  0  0  0  0  0  0  0
   59.6058   15.9212   33.8427 C   0  0  2  0  0  0  0  0  0  0  0  0
   58.7909   15.5947   32.8677 C   0  0  0  0  0  0  0  0  0  0  0  0
   57.6643   16.5073   32.5836 C   0  0  0  0  0  0  0  0  0  0  0  0
   56.5968   16.1743   31.9208 C   0  0  0  0  0  0  0  0  0  0  0  0
   57.7079   17.8831   33.0464 C   0  0  1  0  0  0  0  0  0  0  0  0
   56.6313   18.6795   32.7478 C   0  0  1  0  0  0  0  0  0  0  0  0
   58.6823   18.2864   34.0841 O   0  0  0  0  0  0  0  0  0  0  0  0
   60.1012   17.3554   33.9358 C   0  0  0  0  0  0  0  0  0  0  0  0
   56.8214   20.0364   33.1666 O   0  0  0  0  0  0  0  0  0  0  0  0
   55.6569   18.1987   32.0619 C   0  0  0  0  0  0  0  0  0  0  0  0
   55.6523   17.0837   31.5415 C   0  0  2  0  0  0  0  0  0  0  0  0
   54.4477   16.6754   30.7796 O   0  0  0  0  0  0  0  0  0  0  0  0
   54.6193   15.6709   29.7944 C   0  0  0  0  0  0  0  0  0  0  0  0
  1  2  1  0
  2  3  1  0
  3  4  1  0
  4  5  1  0
  1  6  1  0
  5  6  1  0
  7  4  1  6
  7  8  1  0
  8  9  1  0
  9 10  1  0
  9 11  1  0
 11 12  1  0
 11 13  1  1
  7 14  1  0
 13 14  1  0
 12 15  1  6
 12 16  1  0
 10 17  1  0
 16 17  1  0
 17 18  1  1
 18 19  1  0
M  END
$$$$
34
     RDKit          3D

 19 20  0  0  0  0  0  0  0  0999 V2000
   58.4933   17.8007   29.2392 N   0  0  0  0  0  0  0  0  0  0  0  0
   57.7876   17.6622   30.1266 C   0  0  2  0  0  0  0  0  0  0  0  0
   57.6854   18.8976   31.0396 C   0  0  1  0  0  0  0  0  0  0  0  0
   58.2038   16.4912   30.9867 C   0  0  2  0  0  0  0  0  0  0  0  0
   59.5199   16.7391   31.5655 N   0  0  0  0  0  0  0  0  0  0  0  0
   60.0202   15.7500   32.4278 C   0  0  1  0  0  0  0  0  0  0  0  0
   60.8717   16.0354   33.4583 C   0  0  0  0  0  0  0  0  0  0  0  0
   57.9707   15.2477   30.3757 O   0  0  0  0  0  0  0  0  0  0  0  0
   57.1087   18.7910   32.1675 O   0  0  0  0  0  0  0  0  0  0  0  0
   59.5979   14.4727   32.3207 C   0  0  0  0  0  0  0  0  0  0  0  0
   61.1824   14.9737   34.3118 C   0  0  0  0  0  0  0  0  0  0  0  0
   60.0718   13.4102   33.1254 C   0  0  0  0  0  0  0  0  0  0  0  0
   60.8931   13.7923   34.0966 C   0  0  2  0  0  0  0  0  0  0  0  0
   59.0629   19.5018   31.3269 C   0  0  2  0  0  0  0  0  0  0  0  0
   61.4858   12.6835   35.1749 C   0  0  0  0  0  0  0  0  0  0  0  0
   59.4795   19.3105   32.7446 C   0  0  0  0  0  0  0  0  0  0  0  0
   59.0560   20.6997   30.9746 O   0  0  0  0  0  0  0  0  0  0  0  0
   58.0518   18.9768   33.3524 C   0  0  0  0  0  0  0  0  0  0  0  0
   60.2105   19.6607   33.2688 O   0  0  0  0  0  0  0  0  0  0  0  0
  2  1  1  6
  2  3  1  0
  2  4  1  0
  4  5  1  0
  6  5  1  1
  6  7  1  0
  4  8  1  6
  3  9  1  1
  6 10  1  0
  7 11  1  0
 10 12  1  0
 11 13  1  0
 12 13  1  0
  3 14  1  0
 13 15  1  1
 14 16  1  0
 14 17  1  1
  9 18  1  0
 16 18  1  0
 16 19  2  0
M  END
$$$$
35
     RDKit          3D

 19 19  0  0  0  0  0  0  0  0999 V2000
   58.4933   17.8007   29.2392 N   0  0  0  0  0  0  0  0  0  0  0  0
   57.7876   17.6622   30.1266 C   0  0  2  0  0  0  0  0  0  0  0  0
   57.6854   18.8976   31.0396 C   0  0  2  0  0  0  0  0  0  0  0  0
   58.2038   16.4912   30.9867 C   0  0  2  0  0  0  0  0  0  0  0  0
   59.5199   16.7391   31.5655 N   0  0  0  0  0  0  0  0  0  0  0  0
   60.0202   15.7500   32.4278 C   0  0  1  0  0  0  0  0  0  0  0  0
   60.8717   16.0354   33.4583 C   0  0  0  0  0  0  0  0  0  0  0  0
   57.9707   15.2477   30.3757 O   0  0  0  0  0  0  0  0  0  0  0  0
   57.1087   18.7910   32.1675 O   0  0  0  0  0  0  0  0  0  0  0  0
   59.5979   14.4727   32.3207 C   0  0  0  0  0  0  0  0  0  0  0  0
   60.1668   13.4420   33.1619 C   0  0  1  0  0  0  0  0  0  0  0  0
   61.3495   15.0292   34.2969 C   0  0  0  0  0  0  0  0  0  0  0  0
   59.8615   12.1049   32.8675 F   0  0  0  0  0  0  0  0  0  0  0  0
   61.0174   13.7240   34.1320 C   0  0  1  0  0  0  0  0  0  0  0  0
   57.1258   19.9871   30.1927 C   0  0  1  0  0  0  0  0  0  0  0  0
   61.5716   12.7291   35.2160 C   0  0  0  0  0  0  0  0  0  0  0  0
   55.6881   20.0923   30.3429 C   0  0  0  0  0  0  0  0  0  0  0  0
   55.0596   20.4334   29.1613 O   0  0  0  0  0  0  0  0  0  0  0  0
   57.6210   21.2942   30.5798 O   0  0  0  0  0  0  0  0  0  0  0  0
  2  1  1  6
  2  3  1  0
  2  4  1  0
  4  5  1  0
  6  5  1  1
  6  7  1  0
  4  8  1  6
  3  9  1  1
  6 10  1  0
 10 11  1  0
  7 12  1  0
 11 13  1  6
 11 14  1  0
 12 14  1  0
  3 15  1  0
 14 16  1  1
 15 17  1  0
 17 18  1  0
 15 19  1  1
M  END
$$$$
36
     RDKit          3D

 19 20  0  0  0  0  0  0  0  0999 V2000
   60.4361   12.9922   32.7047 C   0  0  0  0  0  0  0  0  0  0  0  0
   59.6121   14.0464   32.7270 C   0  0  2  0  0  0  0  0  0  0  0  0
   61.0742   12.6924   34.0190 C   0  0  0  0  0  0  0  0  0  0  0  0
   61.0404   13.6268   35.0820 C   0  0  2  0  0  0  0  0  0  0  0  0
   58.8721   14.3957   31.5851 O   0  0  0  0  0  0  0  0  0  0  0  0
   59.6503   15.0173   33.8318 C   0  0  2  0  0  0  0  0  0  0  0  0
   60.3534   14.7714   34.9532 C   0  0  0  0  0  0  0  0  0  0  0  0
   61.8774   13.2277   36.2558 C   0  0  0  0  0  0  0  0  0  0  0  0
   58.0575   15.5737   31.8966 C   0  0  2  0  0  0  0  0  0  0  0  0
   57.4666   16.3389   30.9444 C   0  0  2  0  0  0  0  0  0  0  0  0
   58.6741   15.9959   33.1652 C   0  0  0  0  0  0  0  0  0  0  0  0
   56.8254   17.5474   31.4984 O   0  0  0  0  0  0  0  0  0  0  0  0
   56.8765   18.7998   30.8855 C   0  0  0  0  0  0  0  0  0  0  0  0
   58.2831   19.0934   30.3587 C   0  0  0  0  0  0  0  0  0  0  0  0
   59.3174   18.3051   30.5874 O   0  0  0  0  0  0  0  0  0  0  0  0
   56.1931   19.8919   31.3672 C   0  0  0  0  0  0  0  0  0  0  0  0
   54.9294   20.0461   30.9428 O   0  0  0  0  0  0  0  0  0  0  0  0
   56.4886   15.9926   30.0110 C   0  0  0  0  0  0  0  0  0  0  0  0
   56.7417   16.0191   28.7010 O   0  0  0  0  0  0  0  0  0  0  0  0
  2  1  1  6
  1  3  1  0
  3  4  1  0
  2  5  1  0
  2  6  1  0
  4  7  1  0
  6  7  1  1
  4  8  1  6
  5  9  1  0
  9 10  1  0
  6 11  1  0
  9 11  1  6
 10 12  1  0
 12 13  1  0
 13 14  1  0
 14 15  1  0
 13 16  1  0
 16 17  1  0
 10 18  1  1
 18 19  1  0
M  END
$$$$
37
     RDKit          3D

 19 20  0  0  0  0  0  0  0  0999 V2000
   58.5520   18.1060   29.2833 N   0  0  0  0  0  0  0  0  0  0  0  0
   57.4743   18.3428   29.8996 C   0  0  1  0  0  0  0  0  0  0  0  0
   56.9766   17.3130   30.6500 C   0  0  0  0  0  0  0  0  0  0  0  0
   56.6042   17.6932   32.0691 N   0  0  0  0  0  0  0  0  0  0  0  0
   56.7281   16.0311   30.3856 C   0  0  0  0  0  0  0  0  0  0  0  0
   57.6970   19.5614   30.8354 C   0  0  2  0  0  0  0  0  0  0  0  0
   57.3891   15.5210   29.5560 O   0  0  0  0  0  0  0  0  0  0  0  0
   56.9985   19.2225   32.1313 C   0  0  0  0  0  0  0  0  0  0  0  0
   55.9693   17.0895   33.0192 O   0  0  0  0  0  0  0  0  0  0  0  0
   56.8485   19.8632   33.2026 O   0  0  0  0  0  0  0  0  0  0  0  0
   55.4125   15.4421   30.5428 N   0  0  0  0  0  0  0  0  0  0  0  0
   56.8677   20.7236   30.4544 O   0  0  0  0  0  0  0  0  0  0  0  0
   54.2357   15.3963   29.9150 C   0  0  1  0  0  0  0  0  0  0  0  0
   53.0781   15.6497   30.4956 C   0  0  0  0  0  0  0  0  0  0  0  0
   51.8534   15.8170   29.6990 C   0  0  1  0  0  0  0  0  0  0  0  0
   54.2521   15.9172   28.5429 C   0  0  0  0  0  0  0  0  0  0  0  0
   52.9077   16.1119   27.9576 C   0  0  0  0  0  0  0  0  0  0  0  0
   50.6114   15.8635   30.4666 F   0  0  0  0  0  0  0  0  0  0  0  0
   51.8241   16.1313   28.4841 C   0  0  0  0  0  0  0  0  0  0  0  0
  2  1  1  1
  2  3  1  0
  3  4  1  0
  3  5  1  0
  2  6  1  0
  5  7  2  0
  4  8  1  0
  6  8  1  0
  4  9  1  0
  8 10  2  0
  5 11  1  0
  6 12  1  6
 13 11  1  1
 13 14  1  0
 14 15  1  0
 13 16  1  0
 16 17  1  0
 15 18  1  1
 15 19  1  0
 17 19  1  0
M  END
$$$$
38
     RDKit          3D

 19 21  0  0  0  0  0  0  0  0999 V2000
   56.4766   17.7436   34.0590 O   0  0  0  0  0  0  0  0  0  0  0  0
   57.1822   17.7567   33.1109 C   0  0  0  0  0  0  0  0  0  0  0  0
   58.2935   18.4888   32.9964 N   0  0  0  0  0  0  0  0  0  0  0  0
   59.2033   18.5656   31.8973 C   0  0  2  0  0  0  0  0  0  0  0  0
   59.9573   19.6651   31.9855 O   0  0  0  0  0  0  0  0  0  0  0  0
   59.1487   17.9228   30.7194 C   0  0  1  0  0  0  0  0  0  0  0  0
   57.1977   16.7980   31.8756 C   0  0  1  0  0  0  0  0  0  0  0  0
   60.1739   20.4060   33.2004 C   0  0  2  0  0  0  0  0  0  0  0  0
   57.9268   17.0260   30.7224 C   0  0  1  0  0  0  0  0  0  0  0  0
   59.1283   18.7110   29.5525 O   0  0  0  0  0  0  0  0  0  0  0  0
   57.5708   15.3934   32.3420 C   0  0  0  0  0  0  0  0  0  0  0  0
   58.6443   14.8465   31.4815 O   0  0  0  0  0  0  0  0  0  0  0  0
   55.6776   16.4209   31.8505 O   0  0  0  0  0  0  0  0  0  0  0  0
   57.0707   17.9415   29.7394 C   0  0  2  0  0  0  0  0  0  0  0  0
   56.0701   17.3962   29.0830 O   0  0  0  0  0  0  0  0  0  0  0  0
   58.7062   19.4051   34.1086 C   0  0  0  0  0  0  0  0  0  0  0  0
   61.5398   20.8722   33.1379 C   0  0  0  0  0  0  0  0  0  0  0  0
   59.6942   19.9955   34.3296 C   0  0  0  0  0  0  0  0  0  0  0  0
   57.7480   19.0655   29.3529 C   0  0  0  0  0  0  0  0  0  0  0  0
  1  2  2  0
  2  3  1  0
  3  4  1  0
  4  5  1  6
  4  6  1  0
  2  7  1  0
  5  8  1  0
  6  9  1  0
  7  9  1  0
  6 10  1  6
  7 11  1  0
 11 12  1  0
  7 13  1  6
  9 14  1  6
 14 15  1  6
  3 16  1  0
  8 17  1  1
  8 18  1  0
 16 18  1  0
 10 19  1  0
 14 19  1  0
M  END
$$$$
39
     RDKit          3D

 20 22  0  0  0  0  0  0  0  0999 V2000
   61.1673   12.3367   33.6847 C   0  0  0  0  0  0  0  0  0  0  0  0
   60.3417   13.1827   33.0586 C   0  0  0  0  0  0  0  0  0  0  0  0
   61.6335   12.6619   34.9653 C   0  0  0  0  0  0  0  0  0  0  0  0
   61.3247   13.8773   35.5868 C   0  0  0  0  0  0  0  0  0  0  0  0
   60.5883   14.7775   34.8377 C   0  0  0  0  0  0  0  0  0  0  0  0
   60.2013   14.4517   33.6277 C   0  0  0  0  0  0  0  0  0  0  0  0
   59.3404   15.5468   32.8500 C   0  0  2  0  0  0  0  0  0  0  0  0
   59.0115   15.4472   31.6080 N   0  0  0  0  0  0  0  0  0  0  0  0
   58.9746   16.7462   33.4873 N   0  0  0  0  0  0  0  0  0  0  0  0
   58.4415   17.6474   33.0638 C   0  0  0  0  0  0  0  0  0  0  0  0
   58.2778   16.4076   30.9511 C   0  0  0  0  0  0  0  0  0  0  0  0
   58.0840   18.8763   33.7135 O   0  0  0  0  0  0  0  0  0  0  0  0
   58.0243   17.6360   31.6109 C   0  0  1  0  0  0  0  0  0  0  0  0
   57.2572   18.7678   30.9237 C   0  0  2  0  0  0  0  0  0  0  0  0
   57.6587   19.0842   29.6909 C   0  0  2  0  0  0  0  0  0  0  0  0
   56.2219   19.5190   31.5321 C   0  0  0  0  0  0  0  0  0  0  0  0
   58.8983   18.4836   29.0847 O   0  0  0  0  0  0  0  0  0  0  0  0
   55.5915   20.5414   30.8045 C   0  0  0  0  0  0  0  0  0  0  0  0
   57.1396   20.2188   29.1554 C   0  0  0  0  0  0  0  0  0  0  0  0
   56.0771   20.9005   29.8187 C   0  0  0  0  0  0  0  0  0  0  0  0
  1  2  1  0
  1  3  1  0
  3  4  1  0
  4  5  1  0
  2  6  1  0
  5  6  1  0
  7  6  1  6
  7  8  1  0
  7  9  1  0
  9 10  1  0
  8 11  1  0
 10 12  2  0
 10 13  1  0
 13 11  1  1
 13 14  1  0
 14 15  1  0
 14 16  1  1
 15 17  1  1
 16 18  1  0
 15 19  1  0
 18 20  1  0
 19 20  1  0
M  END
$$$$
4
     RDKit          3D

 13 14  0  0  0  0  0  0  0  0999 V2000
   58.5520   18.1060   29.2833 N   0  0  0  0  0  0  0  0  0  0  0  0
   57.4743   18.3428   29.8996 C   0  0  2  0  0  0  0  0  0  0  0  0
   57.4893   19.5823   30.5438 C   0  0  2  0  0  0  0  0  0  0  0  0
   57.7705   19.6842   31.8688 C   0  0  1  0  0  0  0  0  0  0  0  0
   59.0005   18.9503   32.2767 N   0  0  0  0  0  0  0  0  0  0  0  0
   57.9295   20.9697   32.6154 O   0  0  0  0  0  0  0  0  0  0  0  0
   59.2497   17.7491   31.5565 C   0  0  2  0  0  0  0  0  0  0  0  0
   59.9297   19.4285   33.2392 C   0  0  0  0  0  0  0  0  0  0  0  0
   56.1687   20.2385   30.2138 O   0  0  0  0  0  0  0  0  0  0  0  0
   58.3447   17.4025   30.4931 C   0  0  2  0  0  0  0  0  0  0  0  0
   61.0271   18.7740   33.3288 O   0  0  0  0  0  0  0  0  0  0  0  0
   59.9300   16.6417   32.2108 C   0  0  0  0  0  0  0  0  0  0  0  0
   58.8671   15.8133   32.9063 O   0  0  0  0  0  0  0  0  0  0  0  0
  2  1  1  6
  2  3  1  0
  3  4  1  0
  4  5  1  0
  4  6  1  6
  5  7  1  0
  5  8  1  0
  3  9  1  1
 10  1  1  6
  2 10  1  0
  7 10  1  0
  8 11  1  0
  7 12  1  1
 12 13  1  0
M  END
$$$$
40
     RDKit          3D

 20 22  0  0  0  0  0  0  0  0999 V2000
   61.1673   12.3367   33.6847 C   0  0  0  0  0  0  0  0  0  0  0  0
   60.3417   13.1827   33.0586 C   0  0  0  0  0  0  0  0  0  0  0  0
   61.6132   12.8008   34.9250 C   0  0  0  0  0  0  0  0  0  0  0  0
   61.3032   14.0192   35.4953 C   0  0  1  0  0  0  0  0  0  0  0  0
   60.1803   14.5198   33.5076 C   0  0  2  0  0  0  0  0  0  0  0  0
   61.9751   14.3831   36.7395 N   0  0  0  0  0  0  0  0  0  0  0  0
   60.6681   14.8988   34.7442 C   0  0  2  0  0  0  0  0  0  0  0  0
   59.3113   15.5578   32.6838 C   0  0  0  0  0  0  0  0  0  0  0  0
   58.7330   15.2840   31.6786 O   0  0  0  0  0  0  0  0  0  0  0  0
   59.2005   16.8839   33.0490 N   0  0  0  0  0  0  0  0  0  0  0  0
   59.7325   17.3780   34.2284 C   0  0  0  0  0  0  0  0  0  0  0  0
   60.4758   16.3740   35.1110 N   0  0  0  0  0  0  0  0  0  0  0  0
   58.5222   17.9213   32.3329 C   0  0  2  0  0  0  0  0  0  0  0  0
   57.3152   18.0723   32.7243 C   0  0  0  0  0  0  0  0  0  0  0  0
   56.5612   19.1374   31.9507 C   0  0  0  0  0  0  0  0  0  0  0  0
   57.3248   20.2825   31.5898 C   0  0  0  0  0  0  0  0  0  0  0  0
   58.5591   17.7443   30.8012 C   0  0  0  0  0  0  0  0  0  0  0  0
   58.4079   19.0977   30.0959 C   0  0  2  0  0  0  0  0  0  0  0  0
   57.7258   20.1071   30.2340 C   0  0  0  0  0  0  0  0  0  0  0  0
   58.6663   18.4490   28.7798 N   0  0  0  0  0  0  0  0  0  0  0  0
  1  2  1  0
  1  3  1  0
  3  4  1  0
  5  2  1  1
  4  6  1  6
  4  7  1  0
  5  7  1  0
  5  8  1  0
  8  9  2  0
  8 10  1  0
 10 11  1  0
  7 12  1  6
 11 12  1  0
 13 10  1  1
 13 14  1  0
 14 15  1  0
 15 16  1  0
 13 17  1  0
 17 18  1  0
 16 19  1  0
 18 19  1  0
 18 20  1  6
M  END
$$$$
41
     RDKit          3D

 20 22  0  0  0  0  0  0  0  0999 V2000
   58.4933   17.8007   29.2392 N   0  0  0  0  0  0  0  0  0  0  0  0
   57.5702   17.3755   30.0157 C   0  0  1  0  0  0  0  0  0  0  0  0
   57.4142   18.1553   31.1543 N   0  0  0  0  0  0  0  0  0  0  0  0
   56.3257   17.0463   29.3673 N   0  0  0  0  0  0  0  0  0  0  0  0
   58.6098   18.4457   31.9692 C   0  0  2  0  0  0  0  0  0  0  0  0
   59.5248   17.5854   32.1030 O   0  0  0  0  0  0  0  0  0  0  0  0
   59.8638   17.4026   33.4498 C   0  0  2  0  0  0  0  0  0  0  0  0
   60.2757   16.0629   33.7655 C   0  0  2  0  0  0  0  0  0  0  0  0
   58.3803   17.5714   34.1288 C   0  0  1  0  0  0  0  0  0  0  0  0
   57.9595   18.7093   33.2997 C   0  0  0  0  0  0  0  0  0  0  0  0
   61.5636   15.9271   34.2660 O   0  0  0  0  0  0  0  0  0  0  0  0
   56.0457   18.2948   31.4373 C   0  0  0  0  0  0  0  0  0  0  0  0
   57.5744   16.4538   33.9671 O   0  0  0  0  0  0  0  0  0  0  0  0
   61.9414   14.5373   34.8095 C   0  0  0  0  0  0  0  0  0  0  0  0
   55.4046   17.6337   30.3981 C   0  0  1  0  0  0  0  0  0  0  0  0
   53.9289   17.6164   30.2995 C   0  0  0  0  0  0  0  0  0  0  0  0
   61.2048   13.5664   34.2526 C   0  0  1  0  0  0  0  0  0  0  0  0
   60.2442   14.0827   33.2517 C   0  0  0  0  0  0  0  0  0  0  0  0
   59.7495   15.0544   33.0596 C   0  0  0  0  0  0  0  0  0  0  0  0
   61.7326   12.3014   34.5177 C   0  0  0  0  0  0  0  0  0  0  0  0
  2  1  1  6
  2  3  1  0
  2  4  1  0
  5  3  1  6
  5  6  1  0
  7  6  1  6
  7  8  1  0
  7  9  1  0
  5 10  1  0
  9 10  1  0
  8 11  1  0
  3 12  1  0
  9 13  1  6
 11 14  1  0
  4 15  1  0
 12 15  1  0
 15 16  1  6
 14 17  1  0
 17 18  1  0
  8 19  1  6
 18 19  1  0
 17 20  1  6
M  END
$$$$
42
     RDKit          3D

 20 21  0  0  0  0  0  0  0  0999 V2000
   58.8377   18.2583   29.8943 N   0  0  0  0  0  0  0  0  0  0  0  0
   57.6941   18.7862   30.0705 C   0  0  1  0  0  0  0  0  0  0  0  0
   57.7231   20.0004   30.5182 C   0  0  0  0  0  0  0  0  0  0  0  0
   56.6477   20.7086   30.7242 C   0  0  0  0  0  0  0  0  0  0  0  0
   56.6085   18.3270   29.3131 N   0  0  0  0  0  0  0  0  0  0  0  0
   56.5887   16.9822   28.8925 C   0  0  0  0  0  0  0  0  0  0  0  0
   55.4623   19.1060   29.2040 C   0  0  0  0  0  0  0  0  0  0  0  0
   55.4578   20.2983   29.9282 N   0  0  0  0  0  0  0  0  0  0  0  0
   59.7882   18.2413   30.9830 C   0  0  0  0  0  0  0  0  0  0  0  0
   59.7974   17.0116   31.6932 N   0  0  0  0  0  0  0  0  0  0  0  0
   55.1606   16.4737   28.7436 C   0  0  0  0  0  0  0  0  0  0  0  0
   60.2265   16.8911   32.9927 C   0  0  0  0  0  0  0  0  0  0  0  0
   54.7378   15.6744   29.9473 C   0  0  0  0  0  0  0  0  0  0  0  0
   53.5504   15.1329   30.0017 C   0  0  0  0  0  0  0  0  0  0  0  0
   55.0056   16.4394   31.2069 C   0  0  0  0  0  0  0  0  0  0  0  0
   59.0938   16.7887   33.8122 C   0  0  0  0  0  0  0  0  0  0  0  0
   60.4099   19.1404   31.4632 O   0  0  0  0  0  0  0  0  0  0  0  0
   57.9214   16.4113   33.2245 C   0  0  0  0  0  0  0  0  0  0  0  0
   57.8837   15.9273   31.9448 C   0  0  0  0  0  0  0  0  0  0  0  0
   58.7737   16.3047   31.0790 C   0  0  0  0  0  0  0  0  0  0  0  0
  2  1  1  6
  2  3  1  0
  3  4  1  0
  2  5  1  0
  5  6  1  0
  5  7  1  0
  4  8  1  0
  7  8  1  0
  1  9  1  0
  9 10  1  0
  6 11  1  0
 10 12  1  0
 11 13  1  0
 13 14  1  0
 13 15  1  0
 12 16  1  0
  9 17  2  0
 16 18  1  0
 18 19  1  0
 10 20  1  0
 19 20  1  0
M  END
$$$$
43
     RDKit          3D

 20 22  0  0  0  0  0  0  0  0999 V2000
   62.6946   13.2798   34.8710 C   0  0  0  0  0  0  0  0  0  0  0  0
   61.7593   12.7551   34.2011 C   0  0  0  0  0  0  0  0  0  0  0  0
   60.7203   13.6125   33.6726 C   0  0  0  0  0  0  0  0  0  0  0  0
   60.8340   14.8854   34.2105 C   0  0  0  0  0  0  0  0  0  0  0  0
   61.7489   15.3768   35.0665 C   0  0  0  0  0  0  0  0  0  0  0  0
   62.7383   14.4793   35.4632 C   0  0  0  0  0  0  0  0  0  0  0  0
   59.7499   15.8176   33.8016 C   0  0  0  0  0  0  0  0  0  0  0  0
   59.4660   16.9183   34.5180 O   0  0  0  0  0  0  0  0  0  0  0  0
   59.0172   15.7562   32.6763 N   0  0  0  0  0  0  0  0  0  0  0  0
   57.8690   16.5670   32.3563 C   0  0  1  0  0  0  0  0  0  0  0  0
   57.6912   16.7163   30.9845 C   0  0  0  0  0  0  0  0  0  0  0  0
   57.0162   17.0687   33.2588 O   0  0  0  0  0  0  0  0  0  0  0  0
   58.0742   16.1523   29.9757 O   0  0  0  0  0  0  0  0  0  0  0  0
   56.6802   17.7442   30.6898 N   0  0  0  0  0  0  0  0  0  0  0  0
   56.5784   18.5334   29.5398 C   0  0  1  0  0  0  0  0  0  0  0  0
   55.4320   19.4744   29.7504 C   0  0  0  0  0  0  0  0  0  0  0  0
   54.5964   19.1536   30.8295 O   0  0  0  0  0  0  0  0  0  0  0  0
   57.6937   18.8571   29.0940 O   0  0  0  0  0  0  0  0  0  0  0  0
   55.3240   19.5082   31.9638 C   0  0  0  0  0  0  0  0  0  0  0  0
   56.3378   18.3892   32.1898 C   0  0  1  0  0  0  0  0  0  0  0  0
  1  2  1  0
  2  3  1  0
  3  4  1  0
  4  5  1  0
  1  6  1  0
  5  6  1  0
  4  7  1  0
  7  8  2  0
  7  9  1  0
 10  9  1  6
 10 11  1  0
 10 12  1  0
 11 13  2  0
 11 14  1  0
 14 15  1  0
 15 16  1  0
 16 17  1  0
 15 18  1  1
 17 19  1  0
 12 20  1  0
 14 20  1  0
 20 19  1  6
M  END
$$$$
44
     RDKit          3D

 20 22  0  0  0  0  0  0  0  0999 V2000
   56.0267   17.9876   33.9524 O   0  0  0  0  0  0  0  0  0  0  0  0
   56.9684   17.9993   33.0146 C   0  0  0  0  0  0  0  0  0  0  0  0
   56.7467   17.2623   31.7573 N   0  0  0  0  0  0  0  0  0  0  0  0
   58.2935   18.3560   33.1509 C   0  0  0  0  0  0  0  0  0  0  0  0
   57.7296   17.1567   30.7770 C   0  0  0  0  0  0  0  0  0  0  0  0
   55.5056   16.6538   31.4677 C   0  0  1  0  0  0  0  0  0  0  0  0
   54.6862   17.2332   30.5532 C   0  0  0  0  0  0  0  0  0  0  0  0
   55.8053   15.1616   30.9488 O   0  0  0  0  0  0  0  0  0  0  0  0
   53.5799   16.5236   30.0002 C   0  0  2  0  0  0  0  0  0  0  0  0
   52.8296   17.2157   28.9418 C   0  0  0  0  0  0  0  0  0  0  0  0
   54.6121   14.5450   30.5573 C   0  0  0  0  0  0  0  0  0  0  0  0
   53.2556   18.2945   28.4670 C   0  0  0  0  0  0  0  0  0  0  0  0
   54.1735   19.1945   29.1952 C   0  0  0  0  0  0  0  0  0  0  0  0
   53.2139   15.3367   30.4809 C   0  0  0  0  0  0  0  0  0  0  0  0
   54.9264   18.6776   30.1379 C   0  0  0  0  0  0  0  0  0  0  0  0
   58.7372   18.8146   34.3331 O   0  0  0  0  0  0  0  0  0  0  0  0
   59.3987   18.1309   32.2292 N   0  0  0  0  0  0  0  0  0  0  0  0
   60.6374   18.6735   32.5259 C   0  0  0  0  0  0  0  0  0  0  0  0
   61.0808   19.8454   31.6663 C   0  0  0  0  0  0  0  0  0  0  0  0
   59.0801   17.5272   31.0377 C   0  0  0  0  0  0  0  0  0  0  0  0
  1  2  2  0
  2  3  1  0
  2  4  1  0
  3  5  1  0
  6  3  1  6
  6  7  1  0
  6  8  1  0
  7  9  1  0
  9 10  1  0
  8 11  1  0
 10 12  2  0
 12 13  1  0
  9 14  1  1
 11 14  1  0
  7 15  2  0
 13 15  2  0
  4 16  2  0
  4 17  1  0
 17 18  1  0
 18 19  1  0
  5 20  2  0
 17 20  1  0
M  END
$$$$
45
     RDKit          3D

 20 22  0  0  0  0  0  0  0  0999 V2000
   60.4361   12.9922   32.7047 C   0  0  0  0  0  0  0  0  0  0  0  0
   61.1585   12.9365   33.8689 C   0  0  0  0  0  0  0  0  0  0  0  0
   61.1860   13.9082   34.8417 C   0  0  0  0  0  0  0  0  0  0  0  0
   59.7264   14.3054   32.6816 C   0  0  0  0  0  0  0  0  0  0  0  0
   59.7821   15.2440   33.5567 C   0  0  0  0  0  0  0  0  0  0  0  0
   59.0099   16.4338   33.3667 C   0  0  2  0  0  0  0  0  0  0  0  0
   59.4837   17.5242   33.9780 O   0  0  0  0  0  0  0  0  0  0  0  0
   60.5390   15.1201   34.7384 C   0  0  0  0  0  0  0  0  0  0  0  0
   60.1645   18.4383   33.1789 C   0  0  1  0  0  0  0  0  0  0  0  0
   57.6540   16.4483   33.5122 O   0  0  0  0  0  0  0  0  0  0  0  0
   59.5237   18.4376   31.8702 C   0  0  2  0  0  0  0  0  0  0  0  0
   59.9480   19.8228   33.8774 C   0  0  0  0  0  0  0  0  0  0  0  0
   59.3592   17.1437   31.2270 C   0  0  2  0  0  0  0  0  0  0  0  0
   56.8493   16.5231   32.2996 C   0  0  0  0  0  0  0  0  0  0  0  0
   60.1880   19.4443   31.0469 O   0  0  0  0  0  0  0  0  0  0  0  0
   55.6202   16.4581   32.2107 O   0  0  0  0  0  0  0  0  0  0  0  0
   60.8643   20.3379   34.6828 O   0  0  0  0  0  0  0  0  0  0  0  0
   58.9062   17.4277   29.7882 O   0  0  0  0  0  0  0  0  0  0  0  0
   57.6998   16.8914   31.1186 C   0  0  2  0  0  0  0  0  0  0  0  0
   57.4351   16.9300   29.8586 C   0  0  0  0  0  0  0  0  0  0  0  0
  1  2  1  0
  2  3  1  0
  1  4  1  0
  4  5  1  0
  6  5  1  1
  6  7  1  0
  3  8  1  0
  5  8  1  0
  7  9  1  0
  6 10  1  0
  9 11  1  0
  9 12  1  1
 11 13  1  0
 10 14  1  0
 11 15  1  6
 14 16  2  0
 12 17  1  0
 13 18  1  6
 13 19  1  0
 14 19  1  0
 18 20  1  0
 19 20  1  6
M  END
$$$$
46
     RDKit          3D

 20 22  0  0  0  0  0  0  0  0999 V2000
   58.4933   17.8007   29.2392 N   0  0  0  0  0  0  0  0  0  0  0  0
   57.7876   17.6622   30.1266 C   0  0  2  0  0  0  0  0  0  0  0  0
   57.6854   18.8976   31.0396 C   0  0  1  0  0  0  0  0  0  0  0  0
   58.2038   16.4912   30.9867 C   0  0  2  0  0  0  0  0  0  0  0  0
   59.5199   16.7391   31.5655 N   0  0  0  0  0  0  0  0  0  0  0  0
   60.0202   15.7500   32.4278 C   0  0  1  0  0  0  0  0  0  0  0  0
   60.8717   16.0354   33.4583 C   0  0  2  0  0  0  0  0  0  0  0  0
   57.9707   15.2477   30.3757 O   0  0  0  0  0  0  0  0  0  0  0  0
   57.1087   18.7910   32.1675 O   0  0  0  0  0  0  0  0  0  0  0  0
   59.5979   14.4727   32.3207 C   0  0  0  0  0  0  0  0  0  0  0  0
   61.1824   14.9737   34.3118 C   0  0  0  0  0  0  0  0  0  0  0  0
   60.0718   13.4102   33.1254 C   0  0  0  0  0  0  0  0  0  0  0  0
   60.8931   13.7923   34.0966 C   0  0  2  0  0  0  0  0  0  0  0  0
   59.0629   19.5018   31.3269 C   0  0  2  0  0  0  0  0  0  0  0  0
   61.4858   12.6835   35.1749 C   0  0  0  0  0  0  0  0  0  0  0  0
   59.4795   19.3105   32.7446 C   0  0  1  0  0  0  0  0  0  0  0  0
   58.0523   19.1573   33.3366 C   0  0  0  0  0  0  0  0  0  0  0  0
   60.2449   18.3882   33.2696 O   0  0  0  0  0  0  0  0  0  0  0  0
   60.9546   17.4628   33.9094 C   0  0  0  0  0  0  0  0  0  0  0  0
   59.4246   20.8186   31.0955 O   0  0  0  0  0  0  0  0  0  0  0  0
  2  1  1  6
  2  3  1  0
  2  4  1  0
  4  5  1  0
  5  6  1  0
  6  7  1  0
  4  8  1  6
  3  9  1  1
  6 10  1  1
  7 11  1  1
 10 12  1  0
 11 13  1  0
 12 13  1  0
  3 14  1  0
 13 15  1  1
 14 16  1  0
  9 17  1  0
 16 17  1  1
 16 18  1  0
  7 19  1  0
 18 19  1  0
 14 20  1  1
M  END
$$$$
47
     RDKit          3D

 20 22  0  0  0  0  0  0  0  0999 V2000
   62.6946   13.2798   34.8710 C   0  0  0  0  0  0  0  0  0  0  0  0
   62.4127   14.5040   35.3114 C   0  0  0  0  0  0  0  0  0  0  0  0
   61.4928   12.7443   34.4201 C   0  0  0  0  0  0  0  0  0  0  0  0
   61.2560   15.2053   35.0236 C   0  0  0  0  0  0  0  0  0  0  0  0
   60.5179   13.5794   33.9746 C   0  0  0  0  0  0  0  0  0  0  0  0
   60.3291   14.7468   34.3065 C   0  0  0  0  0  0  0  0  0  0  0  0
   59.2707   15.5188   33.8649 N   0  0  0  0  0  0  0  0  0  0  0  0
   58.7363   15.5242   32.5003 C   0  0  0  0  0  0  0  0  0  0  0  0
   58.4051   16.1564   34.6705 C   0  0  0  0  0  0  0  0  0  0  0  0
   59.4307   15.1231   31.5190 O   0  0  0  0  0  0  0  0  0  0  0  0
   57.4429   16.9779   33.8921 N   0  0  0  0  0  0  0  0  0  0  0  0
   57.5519   16.3287   32.5003 C   0  0  1  0  0  0  0  0  0  0  0  0
   56.8376   16.7185   31.3320 C   0  0  2  0  0  0  0  0  0  0  0  0
   55.8307   15.9264   30.9754 C   0  0  0  0  0  0  0  0  0  0  0  0
   57.6538   17.1511   30.1567 C   0  0  2  0  0  0  0  0  0  0  0  0
   55.0512   16.1810   29.7986 C   0  0  0  0  0  0  0  0  0  0  0  0
   58.4761   18.4068   30.3907 C   0  0  0  0  0  0  0  0  0  0  0  0
   56.7710   17.2490   29.0234 N   0  0  0  0  0  0  0  0  0  0  0  0
   59.8228   18.3547   30.5644 O   0  0  0  0  0  0  0  0  0  0  0  0
   55.9350   16.3065   28.6981 C   0  0  0  0  0  0  0  0  0  0  0  0
  1  2  1  0
  1  3  1  0
  2  4  1  0
  3  5  1  0
  4  6  1  0
  5  6  1  0
  6  7  1  0
  7  8  1  0
  7  9  1  0
  8 10  2  0
  9 11  1  0
  8 12  1  0
 12 11  1  6
 12 13  1  0
 13 14  1  6
 13 15  1  0
 14 16  1  0
 15 17  1  1
 15 18  1  0
 17 19  1  0
 16 20  1  0
 18 20  1  0
M  END
$$$$
48
     RDKit          3D

 20 21  0  0  0  0  0  0  0  0999 V2000
   62.1862   12.6853   34.4132 C   0  0  0  0  0  0  0  0  0  0  0  0
   61.0478   12.8507   33.7557 C   0  0  0  0  0  0  0  0  0  0  0  0
   62.1999   13.5820   35.5039 C   0  0  1  0  0  0  0  0  0  0  0  0
   63.2307   13.6335   36.4420 N   0  0  0  0  0  0  0  0  0  0  0  0
   61.3818   14.7482   35.4422 C   0  0  0  0  0  0  0  0  0  0  0  0
   60.4782   14.6416   34.4811 C   0  0  2  0  0  0  0  0  0  0  0  0
   60.2759   13.8421   33.5622 C   0  0  0  0  0  0  0  0  0  0  0  0
   59.5091   16.0402   34.5251 C   0  0  0  0  0  0  0  0  0  0  0  0
   59.3624   16.5632   33.1495 N   0  0  0  0  0  0  0  0  0  0  0  0
   58.2727   17.6152   33.0807 C   0  0  0  0  0  0  0  0  0  0  0  0
   57.3970   17.7588   33.8319 O   0  0  0  0  0  0  0  0  0  0  0  0
   58.5801   18.6275   31.9725 C   0  0  2  0  0  0  0  0  0  0  0  0
   58.3088   19.9095   32.2922 O   0  0  0  0  0  0  0  0  0  0  0  0
   57.8131   18.2323   30.6815 C   0  0  2  0  0  0  0  0  0  0  0  0
   57.5593   20.5513   31.2382 C   0  0  1  0  0  0  0  0  0  0  0  0
   58.6130   17.6604   29.7078 O   0  0  0  0  0  0  0  0  0  0  0  0
   57.4274   19.6332   30.2449 C   0  0  1  0  0  0  0  0  0  0  0  0
   57.0562   21.7229   31.4321 C   0  0  0  0  0  0  0  0  0  0  0  0
   58.1771   19.9039   29.0776 O   0  0  0  0  0  0  0  0  0  0  0  0
   55.6588   21.7447   30.7603 O   0  0  0  0  0  0  0  0  0  0  0  0
  1  2  1  0
  1  3  1  0
  3  4  1  6
  3  5  1  0
  5  6  1  0
  2  7  1  0
  6  7  1  0
  6  8  1  6
  8  9  1  0
  9 10  1  0
 10 11  2  0
 12 10  1  1
 12 13  1  0
 12 14  1  0
 13 15  1  0
 14 16  1  6
 14 17  1  0
 15 17  1  0
 15 18  1  1
 17 19  1  6
 18 20  1  0
M  END
$$$$
49
     RDKit          3D

 20 22  0  0  0  0  0  0  0  0999 V2000
   60.8156   12.4758   33.1898 C   0  0  0  0  0  0  0  0  0  0  0  0
   60.0189   13.5884   32.9009 C   0  0  0  0  0  0  0  0  0  0  0  0
   60.1957   14.6976   33.6170 C   0  0  1  0  0  0  0  0  0  0  0  0
   61.4538   12.4004   34.4455 C   0  0  0  0  0  0  0  0  0  0  0  0
   59.5512   15.9933   33.2463 C   0  0  0  0  0  0  0  0  0  0  0  0
   60.9421   14.7461   34.8227 C   0  0  0  0  0  0  0  0  0  0  0  0
   61.6274   13.6207   35.2309 C   0  0  1  0  0  0  0  0  0  0  0  0
   62.4196   13.6742   36.4760 C   0  0  0  0  0  0  0  0  0  0  0  0
   59.9337   17.2031   33.6684 O   0  0  0  0  0  0  0  0  0  0  0  0
   58.4479   16.0551   32.4387 C   0  0  0  0  0  0  0  0  0  0  0  0
   57.9684   17.4350   32.2070 C   0  0  1  0  0  0  0  0  0  0  0  0
   59.2430   18.2522   33.0359 C   0  0  1  0  0  0  0  0  0  0  0  0
   57.9174   17.8121   30.8500 C   0  0  2  0  0  0  0  0  0  0  0  0
   59.2903   19.5814   33.1981 C   0  0  0  0  0  0  0  0  0  0  0  0
   56.5540   17.5740   32.9858 C   0  0  0  0  0  0  0  0  0  0  0  0
   58.8592   17.4196   30.0171 N   0  0  0  0  0  0  0  0  0  0  0  0
   58.5563   17.7565   28.6642 N   0  0  0  0  0  0  0  0  0  0  0  0
   57.8775   19.3832   30.7582 C   0  0  0  0  0  0  0  0  0  0  0  0
   57.0679   19.9430   30.0187 C   0  0  0  0  0  0  0  0  0  0  0  0
   58.9360   20.1007   31.6951 C   0  0  0  0  0  0  0  0  0  0  0  0
  1  2  1  0
  2  3  1  0
  1  4  1  0
  3  5  1  1
  3  6  1  0
  4  7  1  0
  6  7  1  0
  7  8  1  1
  5  9  1  0
  5 10  1  0
 10 11  1  0
  9 12  1  0
 11 12  1  0
 11 13  1  0
 12 14  1  1
 11 15  1  1
 13 16  1  6
 16 17  1  0
 13 18  1  0
 18 19  2  0
 14 20  1  0
 18 20  1  0
M  END
$$$$
5
     RDKit          3D

 13 14  0  0  0  0  0  0  0  0999 V2000
   58.8377   18.2583   29.8943 N   0  0  0  0  0  0  0  0  0  0  0  0
   57.6941   18.7862   30.0705 C   0  0  2  0  0  0  0  0  0  0  0  0
   57.7231   20.0004   30.5182 C   0  0  0  0  0  0  0  0  0  0  0  0
   56.6477   20.7086   30.7242 C   0  0  0  0  0  0  0  0  0  0  0  0
   56.6058   17.9006   30.6946 C   0  0  1  0  0  0  0  0  0  0  0  0
   55.3519   18.5697   30.8671 C   0  0  0  0  0  0  0  0  0  0  0  0
   55.3966   19.9495   30.9957 C   0  0  0  0  0  0  0  0  0  0  0  0
   56.6429   16.3597   30.5163 C   0  0  2  0  0  0  0  0  0  0  0  0
   55.8417   15.7613   31.4807 C   0  0  0  0  0  0  0  0  0  0  0  0
   58.0174   15.9390   30.8417 N   0  0  0  0  0  0  0  0  0  0  0  0
   59.1674   16.8152   30.4898 C   0  0  0  0  0  0  0  0  0  0  0  0
   54.3212   15.7431   31.0388 C   0  0  0  0  0  0  0  0  0  0  0  0
   54.1368   14.9990   29.7376 C   0  0  0  0  0  0  0  0  0  0  0  0
  1  2  1  0
  2  3  1  1
  3  4  1  0
  2  5  1  0
  5  6  1  6
  4  7  1  0
  6  7  1  0
  5  8  1  0
  8  9  1  1
  8 10  1  0
  1 11  1  0
 10 11  1  0
  9 12  1  0
 12 13  1  0
M  END
$$$$
50
     RDKit          3D

 20 21  0  0  0  0  0  0  0  0999 V2000
   62.1862   12.6853   34.4132 C   0  0  0  0  0  0  0  0  0  0  0  0
   61.0478   12.8507   33.7557 C   0  0  0  0  0  0  0  0  0  0  0  0
   62.1999   13.5820   35.5039 C   0  0  1  0  0  0  0  0  0  0  0  0
   63.2307   13.6335   36.4420 N   0  0  0  0  0  0  0  0  0  0  0  0
   61.3818   14.7482   35.4422 C   0  0  0  0  0  0  0  0  0  0  0  0
   60.4782   14.6416   34.4811 C   0  0  2  0  0  0  0  0  0  0  0  0
   60.2759   13.8421   33.5622 C   0  0  0  0  0  0  0  0  0  0  0  0
   59.5091   16.0402   34.5251 C   0  0  0  0  0  0  0  0  0  0  0  0
   59.3624   16.5632   33.1495 N   0  0  0  0  0  0  0  0  0  0  0  0
   58.2727   17.6152   33.0807 C   0  0  0  0  0  0  0  0  0  0  0  0
   57.3970   17.7588   33.8319 O   0  0  0  0  0  0  0  0  0  0  0  0
   58.5801   18.6275   31.9725 C   0  0  2  0  0  0  0  0  0  0  0  0
   58.3088   19.9095   32.2922 O   0  0  0  0  0  0  0  0  0  0  0  0
   57.8131   18.2323   30.6815 C   0  0  2  0  0  0  0  0  0  0  0  0
   57.5593   20.5513   31.2382 C   0  0  1  0  0  0  0  0  0  0  0  0
   58.6130   17.6604   29.7078 O   0  0  0  0  0  0  0  0  0  0  0  0
   57.4274   19.6332   30.2449 C   0  0  1  0  0  0  0  0  0  0  0  0
   57.0562   21.7229   31.4321 C   0  0  0  0  0  0  0  0  0  0  0  0
   58.1771   19.9039   29.0776 O   0  0  0  0  0  0  0  0  0  0  0  0
   55.6588   21.7447   30.7603 C   0  0  0  0  0  0  0  0  0  0  0  0
  1  2  1  0
  1  3  1  0
  3  4  1  6
  3  5  1  0
  5  6  1  0
  2  7  1  0
  6  7  1  0
  6  8  1  6
  8  9  1  0
  9 10  1  0
 10 11  2  0
 12 10  1  1
 12 13  1  0
 12 14  1  0
 13 15  1  0
 14 16  1  6
 14 17  1  0
 15 17  1  0
 15 18  1  1
 17 19  1  6
 18 20  1  0
M  END
$$$$
51
     RDKit          3D

 20 22  0  0  0  0  0  0  0  0999 V2000
   61.1673   12.3367   33.6847 C   0  0  0  0  0  0  0  0  0  0  0  0
   60.3417   13.1827   33.0586 C   0  0  0  0  0  0  0  0  0  0  0  0
   61.6132   12.8008   34.9250 C   0  0  0  0  0  0  0  0  0  0  0  0
   61.3032   14.0192   35.4953 C   0  0  1  0  0  0  0  0  0  0  0  0
   60.1803   14.5198   33.5076 C   0  0  2  0  0  0  0  0  0  0  0  0
   61.9751   14.3831   36.7395 N   0  0  0  0  0  0  0  0  0  0  0  0
   60.6681   14.8988   34.7442 C   0  0  2  0  0  0  0  0  0  0  0  0
   59.3113   15.5578   32.6838 C   0  0  0  0  0  0  0  0  0  0  0  0
   58.7330   15.2840   31.6786 O   0  0  0  0  0  0  0  0  0  0  0  0
   59.2005   16.8839   33.0490 N   0  0  0  0  0  0  0  0  0  0  0  0
   59.7325   17.3780   34.2284 C   0  0  0  0  0  0  0  0  0  0  0  0
   60.4758   16.3740   35.1110 N   0  0  0  0  0  0  0  0  0  0  0  0
   58.5222   17.9213   32.3329 C   0  0  1  0  0  0  0  0  0  0  0  0
   57.3152   18.0723   32.7243 C   0  0  0  0  0  0  0  0  0  0  0  0
   56.5612   19.1374   31.9507 C   0  0  0  0  0  0  0  0  0  0  0  0
   57.3248   20.2825   31.5898 C   0  0  2  0  0  0  0  0  0  0  0  0
   59.4105   18.7176   31.5331 C   0  0  0  0  0  0  0  0  0  0  0  0
   56.6772   21.2133   30.7627 O   0  0  0  0  0  0  0  0  0  0  0  0
   55.3653   20.8609   30.3507 C   0  0  0  0  0  0  0  0  0  0  0  0
   58.6718   19.8874   31.0144 C   0  0  0  0  0  0  0  0  0  0  0  0
  1  2  1  0
  1  3  1  0
  3  4  1  0
  5  2  1  1
  4  6  1  6
  4  7  1  0
  5  7  1  0
  5  8  1  0
  8  9  2  0
  8 10  1  0
 10 11  1  0
  7 12  1  6
 11 12  1  0
 13 10  1  1
 13 14  1  0
 14 15  1  0
 15 16  1  0
 13 17  1  0
 16 18  1  6
 18 19  1  0
 16 20  1  0
 17 20  1  0
M  END
$$$$
52
     RDKit          3D

 21 23  0  0  0  0  0  0  0  0999 V2000
   60.4361   12.9922   32.7047 C   0  0  0  0  0  0  0  0  0  0  0  0
   59.6121   14.0464   32.7270 C   0  0  2  0  0  0  0  0  0  0  0  0
   61.1828   12.6258   33.9161 C   0  0  0  0  0  0  0  0  0  0  0  0
   61.2015   13.5258   34.9925 C   0  0  2  0  0  0  0  0  0  0  0  0
   58.8255   14.4215   31.6745 O   0  0  0  0  0  0  0  0  0  0  0  0
   58.5998   15.8105   31.7266 C   0  0  2  0  0  0  0  0  0  0  0  0
   60.6232   14.6223   34.8910 C   0  0  0  0  0  0  0  0  0  0  0  0
   59.8024   15.0011   33.8275 C   0  0  1  0  0  0  0  0  0  0  0  0
   62.0974   13.2698   36.2014 C   0  0  0  0  0  0  0  0  0  0  0  0
   58.9879   16.0653   33.1824 C   0  0  0  0  0  0  0  0  0  0  0  0
   57.7827   16.6221   31.0985 C   0  0  0  0  0  0  0  0  0  0  0  0
   57.5874   16.4757   29.6907 N   0  0  0  0  0  0  0  0  0  0  0  0
   56.4713   16.4791   29.0137 C   0  0  0  0  0  0  0  0  0  0  0  0
   57.0442   17.6528   31.5985 O   0  0  0  0  0  0  0  0  0  0  0  0
   55.3347   17.0265   29.7990 C   0  0  2  0  0  0  0  0  0  0  0  0
   55.7810   18.0414   30.8126 C   0  0  1  0  0  0  0  0  0  0  0  0
   55.2170   19.1268   31.3270 O   0  0  0  0  0  0  0  0  0  0  0  0
   56.1093   20.2065   31.7123 C   0  0  0  0  0  0  0  0  0  0  0  0
   54.4309   16.0630   30.3050 C   0  0  0  0  0  0  0  0  0  0  0  0
   53.3991   15.8033   29.5914 O   0  0  0  0  0  0  0  0  0  0  0  0
   54.7864   15.5774   31.4858 O   0  0  0  0  0  0  0  0  0  0  0  0
  2  1  1  6
  1  3  1  0
  3  4  1  0
  2  5  1  0
  5  6  1  0
  4  7  1  0
  2  8  1  0
  8  7  1  6
  4  9  1  6
  6 10  1  0
  8 10  1  0
  6 11  1  1
 11 12  1  0
 12 13  1  0
 11 14  1  0
 13 15  1  0
 14 16  1  0
 15 16  1  0
 16 17  1  1
 17 18  1  0
 15 19  1  1
 19 20  2  0
 19 21  1  0
M  END
$$$$
53
     RDKit          3D

 21 23  0  0  0  0  0  0  0  0999 V2000
   62.6946   13.2798   34.8710 C   0  0  0  0  0  0  0  0  0  0  0  0
   62.4127   14.5040   35.3114 C   0  0  0  0  0  0  0  0  0  0  0  0
   61.4928   12.7443   34.4201 C   0  0  0  0  0  0  0  0  0  0  0  0
   61.2560   15.2053   35.0236 C   0  0  0  0  0  0  0  0  0  0  0  0
   60.5179   13.5794   33.9746 C   0  0  0  0  0  0  0  0  0  0  0  0
   60.3291   14.7468   34.3065 C   0  0  0  0  0  0  0  0  0  0  0  0
   59.2707   15.5188   33.8649 N   0  0  0  0  0  0  0  0  0  0  0  0
   58.7363   15.5242   32.5003 C   0  0  0  0  0  0  0  0  0  0  0  0
   58.4051   16.1564   34.6705 C   0  0  0  0  0  0  0  0  0  0  0  0
   59.4307   15.1231   31.5190 O   0  0  0  0  0  0  0  0  0  0  0  0
   57.4429   16.9779   33.8921 N   0  0  0  0  0  0  0  0  0  0  0  0
   57.5519   16.3287   32.5003 C   0  0  1  0  0  0  0  0  0  0  0  0
   56.8376   16.7185   31.3320 C   0  0  2  0  0  0  0  0  0  0  0  0
   55.8307   15.9264   30.9754 C   0  0  0  0  0  0  0  0  0  0  0  0
   57.6538   17.1511   30.1567 C   0  0  1  0  0  0  0  0  0  0  0  0
   55.0512   16.1810   29.7986 C   0  0  0  0  0  0  0  0  0  0  0  0
   55.8278   16.6349   28.6592 C   0  0  0  0  0  0  0  0  0  0  0  0
   57.0342   17.2966   28.9724 C   0  0  0  0  0  0  0  0  0  0  0  0
   58.5294   18.3728   30.5366 C   0  0  0  0  0  0  0  0  0  0  0  0
   59.6939   18.6605   30.5676 O   0  0  0  0  0  0  0  0  0  0  0  0
   57.7486   19.5069   30.9666 O   0  0  0  0  0  0  0  0  0  0  0  0
  1  2  1  0
  1  3  1  0
  2  4  1  0
  3  5  1  0
  4  6  1  0
  5  6  1  0
  6  7  1  0
  7  8  1  0
  7  9  1  0
  8 10  2  0
  9 11  1  0
  8 12  1  0
 12 11  1  6
 12 13  1  0
 13 14  1  6
 13 15  1  0
 14 16  1  0
 16 17  1  0
 15 18  1  0
 17 18  1  0
 15 19  1  1
 19 20  1  0
 19 21  2  0
M  END
$$$$
54
     RDKit          3D

 21 23  0  0  0  0  0  0  0  0999 V2000
   62.6946   13.2798   34.8710 C   0  0  0  0  0  0  0  0  0  0  0  0
   61.7593   12.7551   34.2011 C   0  0  0  0  0  0  0  0  0  0  0  0
   60.7203   13.6125   33.6726 C   0  0  0  0  0  0  0  0  0  0  0  0
   60.8340   14.8854   34.2105 C   0  0  0  0  0  0  0  0  0  0  0  0
   61.7489   15.3768   35.0665 C   0  0  0  0  0  0  0  0  0  0  0  0
   62.7383   14.4793   35.4632 C   0  0  0  0  0  0  0  0  0  0  0  0
   59.7499   15.8176   33.8016 C   0  0  0  0  0  0  0  0  0  0  0  0
   59.4660   16.9183   34.5180 O   0  0  0  0  0  0  0  0  0  0  0  0
   59.0172   15.7562   32.6763 N   0  0  0  0  0  0  0  0  0  0  0  0
   57.8690   16.5670   32.3563 C   0  0  1  0  0  0  0  0  0  0  0  0
   57.6912   16.7163   30.9845 C   0  0  0  0  0  0  0  0  0  0  0  0
   57.0162   17.0687   33.2588 O   0  0  0  0  0  0  0  0  0  0  0  0
   58.0742   16.1523   29.9757 O   0  0  0  0  0  0  0  0  0  0  0  0
   56.6802   17.7442   30.6898 N   0  0  0  0  0  0  0  0  0  0  0  0
   56.5784   18.5334   29.5398 C   0  0  1  0  0  0  0  0  0  0  0  0
   55.4320   19.4744   29.7504 C   0  0  0  0  0  0  0  0  0  0  0  0
   54.5964   19.1536   30.8295 O   0  0  0  0  0  0  0  0  0  0  0  0
   57.6937   18.8571   29.0940 O   0  0  0  0  0  0  0  0  0  0  0  0
   55.3240   19.5082   31.9638 C   0  0  0  0  0  0  0  0  0  0  0  0
   56.7026   18.6907   31.9960 C   0  0  1  0  0  0  0  0  0  0  0  0
   56.7691   18.3858   33.2052 C   0  0  0  0  0  0  0  0  0  0  0  0
  1  2  1  0
  2  3  1  0
  3  4  1  0
  4  5  1  0
  1  6  1  0
  5  6  1  0
  4  7  1  0
  7  8  2  0
  7  9  1  0
 10  9  1  6
 10 11  1  0
 10 12  1  0
 11 13  2  0
 11 14  1  0
 14 15  1  0
 15 16  1  0
 16 17  1  0
 15 18  1  1
 17 19  1  0
 14 20  1  0
 20 19  1  1
 12 21  1  0
 20 21  1  0
M  END
$$$$
55
     RDKit          3D

 21 23  0  0  0  0  0  0  0  0999 V2000
   60.8156   12.4758   33.1898 C   0  0  0  0  0  0  0  0  0  0  0  0
   60.0189   13.5884   32.9009 C   0  0  0  0  0  0  0  0  0  0  0  0
   60.1957   14.6976   33.6170 C   0  0  1  0  0  0  0  0  0  0  0  0
   61.4538   12.4004   34.4455 C   0  0  0  0  0  0  0  0  0  0  0  0
   59.5512   15.9933   33.2463 C   0  0  2  0  0  0  0  0  0  0  0  0
   60.9421   14.7461   34.8227 C   0  0  0  0  0  0  0  0  0  0  0  0
   61.6274   13.6207   35.2309 C   0  0  1  0  0  0  0  0  0  0  0  0
   62.4196   13.6742   36.4760 C   0  0  0  0  0  0  0  0  0  0  0  0
   59.9337   17.2031   33.6684 O   0  0  0  0  0  0  0  0  0  0  0  0
   59.7113   18.3920   32.9463 C   0  0  1  0  0  0  0  0  0  0  0  0
   58.1476   15.8752   33.3448 O   0  0  0  0  0  0  0  0  0  0  0  0
   57.4088   16.5081   32.2878 C   0  0  0  0  0  0  0  0  0  0  0  0
   58.7406   18.2838   31.8825 C   0  0  1  0  0  0  0  0  0  0  0  0
   59.6394   19.6293   33.8233 C   0  0  0  0  0  0  0  0  0  0  0  0
   60.6674   20.4410   33.9208 O   0  0  0  0  0  0  0  0  0  0  0  0
   59.0450   19.2247   30.8021 O   0  0  0  0  0  0  0  0  0  0  0  0
   58.2532   17.1046   31.4264 C   0  0  2  0  0  0  0  0  0  0  0  0
   57.5181   17.4470   30.1387 C   0  0  1  0  0  0  0  0  0  0  0  0
   56.1698   16.2763   32.2606 O   0  0  0  0  0  0  0  0  0  0  0  0
   58.1650   18.7248   29.6660 C   0  0  0  0  0  0  0  0  0  0  0  0
   57.6475   16.3637   29.1457 O   0  0  0  0  0  0  0  0  0  0  0  0
  1  2  1  0
  3  2  1  1
  1  4  1  0
  3  5  1  0
  3  6  1  0
  4  7  1  0
  6  7  1  0
  7  8  1  1
  5  9  1  1
  9 10  1  0
  5 11  1  0
 11 12  1  0
 10 13  1  0
 10 14  1  1
 14 15  1  0
 13 16  1  6
 17 12  1  1
 13 17  1  0
 17 18  1  0
 12 19  2  0
 16 20  1  0
 18 20  1  0
 18 21  1  6
M  END
$$$$
56
     RDKit          3D

 21 23  0  0  0  0  0  0  0  0999 V2000
   61.1673   12.3367   33.6847 C   0  0  0  0  0  0  0  0  0  0  0  0
   60.3417   13.1827   33.0586 C   0  0  0  0  0  0  0  0  0  0  0  0
   61.6132   12.8008   34.9250 C   0  0  0  0  0  0  0  0  0  0  0  0
   61.3032   14.0192   35.4953 C   0  0  1  0  0  0  0  0  0  0  0  0
   60.1803   14.5198   33.5076 C   0  0  2  0  0  0  0  0  0  0  0  0
   61.9751   14.3831   36.7395 N   0  0  0  0  0  0  0  0  0  0  0  0
   60.6681   14.8988   34.7442 C   0  0  2  0  0  0  0  0  0  0  0  0
   59.3113   15.5578   32.6838 C   0  0  0  0  0  0  0  0  0  0  0  0
   58.7330   15.2840   31.6786 O   0  0  0  0  0  0  0  0  0  0  0  0
   59.2005   16.8839   33.0490 N   0  0  0  0  0  0  0  0  0  0  0  0
   59.7325   17.3780   34.2284 C   0  0  0  0  0  0  0  0  0  0  0  0
   60.4758   16.3740   35.1110 N   0  0  0  0  0  0  0  0  0  0  0  0
   58.5222   17.9213   32.3329 C   0  0  1  0  0  0  0  0  0  0  0  0
   57.3152   18.0723   32.7243 C   0  0  0  0  0  0  0  0  0  0  0  0
   56.5612   19.1374   31.9507 C   0  0  0  0  0  0  0  0  0  0  0  0
   57.3248   20.2825   31.5898 C   0  0  2  0  0  0  0  0  0  0  0  0
   59.4105   18.7176   31.5331 C   0  0  1  0  0  0  0  0  0  0  0  0
   56.6772   21.2133   30.7627 O   0  0  0  0  0  0  0  0  0  0  0  0
   55.3653   20.8609   30.3507 C   0  0  0  0  0  0  0  0  0  0  0  0
   60.4670   18.4332   31.0398 O   0  0  0  0  0  0  0  0  0  0  0  0
   58.6064   19.9202   30.9318 C   0  0  0  0  0  0  0  0  0  0  0  0
  1  2  1  0
  1  3  1  0
  3  4  1  0
  5  2  1  1
  4  6  1  6
  4  7  1  0
  5  7  1  0
  5  8  1  0
  8  9  2  0
  8 10  1  0
 10 11  1  0
  7 12  1  6
 11 12  1  0
 13 10  1  1
 13 14  1  0
 14 15  1  0
 15 16  1  0
 13 17  1  0
 16 18  1  6
 18 19  1  0
 17 20  1  6
 16 21  1  0
 17 21  1  0
M  END
$$$$
57
     RDKit          3D

 21 23  0  0  0  0  0  0  0  0999 V2000
   56.0267   17.9876   33.9524 O   0  0  0  0  0  0  0  0  0  0  0  0
   56.9684   17.9993   33.0146 C   0  0  0  0  0  0  0  0  0  0  0  0
   56.7467   17.2623   31.7573 N   0  0  0  0  0  0  0  0  0  0  0  0
   58.2935   18.3560   33.1509 C   0  0  0  0  0  0  0  0  0  0  0  0
   57.7296   17.1567   30.7770 C   0  0  1  0  0  0  0  0  0  0  0  0
   55.5056   16.6538   31.4677 C   0  0  0  0  0  0  0  0  0  0  0  0
   54.6862   17.2332   30.5532 C   0  0  0  0  0  0  0  0  0  0  0  0
   58.8362   18.2188   31.0271 C   0  0  0  0  0  0  0  0  0  0  0  0
   58.3736   15.9568   30.5456 O   0  0  0  0  0  0  0  0  0  0  0  0
   58.8939   19.0502   32.0617 N   0  0  0  0  0  0  0  0  0  0  0  0
   60.1697   19.6889   32.4512 C   0  0  0  0  0  0  0  0  0  0  0  0
   55.6721   15.1521   31.0766 C   0  0  0  0  0  0  0  0  0  0  0  0
   54.2386   14.6570   30.8014 C   0  0  0  0  0  0  0  0  0  0  0  0
   59.6765   18.4147   29.9932 O   0  0  0  0  0  0  0  0  0  0  0  0
   59.9666   20.4971   33.6181 C   0  0  0  0  0  0  0  0  0  0  0  0
   53.4425   16.7286   30.1861 C   0  0  0  0  0  0  0  0  0  0  0  0
   53.4592   15.3609   30.0022 C   0  0  0  0  0  0  0  0  0  0  0  0
   60.6639   20.0677   34.7710 C   0  0  0  0  0  0  0  0  0  0  0  0
   61.5395   19.3192   34.7744 C   0  0  0  0  0  0  0  0  0  0  0  0
   61.7402   18.4220   33.6938 C   0  0  0  0  0  0  0  0  0  0  0  0
   60.9832   18.4507   32.5888 C   0  0  0  0  0  0  0  0  0  0  0  0
  1  2  2  0
  2  3  1  0
  2  4  1  0
  3  5  1  0
  3  6  1  0
  6  7  1  0
  5  8  1  0
  5  9  1  1
  4 10  1  0
  8 10  1  0
 10 11  1  0
  6 12  1  0
 12 13  1  0
  8 14  2  0
 11 15  1  0
  7 16  1  0
 13 17  1  0
 16 17  1  0
 15 18  1  0
 18 19  1  0
 19 20  1  0
 11 21  1  0
 20 21  1  0
M  END
$$$$
58
     RDKit          3D

 21 21  0  0  0  0  0  0  0  0999 V2000
   60.4361   12.9922   32.7047 C   0  0  0  0  0  0  0  0  0  0  0  0
   59.6121   14.0464   32.7270 C   0  0  0  0  0  0  0  0  0  0  0  0
   59.7635   14.9491   33.7604 C   0  0  2  0  0  0  0  0  0  0  0  0
   59.0707   16.2096   33.7095 C   0  0  0  0  0  0  0  0  0  0  0  0
   61.1488   12.6568   33.9656 C   0  0  0  0  0  0  0  0  0  0  0  0
   60.6899   14.6289   34.8426 C   0  0  2  0  0  0  0  0  0  0  0  0
   60.8880   15.6530   35.8349 O   0  0  0  0  0  0  0  0  0  0  0  0
   61.3600   13.5187   34.8670 C   0  0  1  0  0  0  0  0  0  0  0  0
   62.3827   13.3015   36.2676 Cl  0  0  0  0  0  0  0  0  0  0  0  0
   57.9238   16.2996   32.9872 O   0  0  0  0  0  0  0  0  0  0  0  0
   57.2034   17.6142   33.0432 C   0  0  0  0  0  0  0  0  0  0  0  0
   56.2654   17.7568   32.0427 C   0  0  2  0  0  0  0  0  0  0  0  0
   56.7694   17.6594   30.6626 C   0  0  1  0  0  0  0  0  0  0  0  0
   55.8564   17.6924   29.6169 N   0  0  0  0  0  0  0  0  0  0  0  0
   58.0284   17.6552   30.1683 C   0  0  0  0  0  0  0  0  0  0  0  0
   55.7182   19.0628   32.2274 O   0  0  0  0  0  0  0  0  0  0  0  0
   58.3658   18.1443   29.0661 O   0  0  0  0  0  0  0  0  0  0  0  0
   54.4919   17.8790   29.7462 C   0  0  0  0  0  0  0  0  0  0  0  0
   53.6922   17.0647   28.8439 C   0  0  2  0  0  0  0  0  0  0  0  0
   54.0641   15.7715   28.6277 C   0  0  0  0  0  0  0  0  0  0  0  0
   53.5010   17.6993   27.5573 O   0  0  0  0  0  0  0  0  0  0  0  0
  1  2  1  0
  2  3  1  0
  3  4  1  6
  1  5  1  0
  3  6  1  0
  6  7  1  6
  5  8  1  0
  6  8  1  0
  8  9  1  1
  4 10  1  0
 10 11  1  0
 11 12  1  0
 12 13  1  0
 13 14  1  0
 13 15  1  6
 12 16  1  6
 15 17  1  0
 14 18  1  0
 18 19  1  0
 19 20  1  6
 19 21  1  0
M  END
$$$$
59
     RDKit          3D

 21 23  0  0  0  0  0  0  0  0999 V2000
   60.4361   12.9922   32.7047 C   0  0  0  0  0  0  0  0  0  0  0  0
   59.6121   14.0464   32.7270 C   0  0  2  0  0  0  0  0  0  0  0  0
   61.0742   12.6924   34.0190 C   0  0  0  0  0  0  0  0  0  0  0  0
   61.0404   13.6268   35.0820 C   0  0  2  0  0  0  0  0  0  0  0  0
   58.8721   14.3957   31.5851 O   0  0  0  0  0  0  0  0  0  0  0  0
   59.6503   15.0173   33.8318 C   0  0  2  0  0  0  0  0  0  0  0  0
   60.3534   14.7714   34.9532 C   0  0  0  0  0  0  0  0  0  0  0  0
   61.8774   13.2277   36.2558 C   0  0  0  0  0  0  0  0  0  0  0  0
   58.0575   15.5737   31.8966 C   0  0  2  0  0  0  0  0  0  0  0  0
   57.4666   16.3389   30.9444 C   0  0  0  0  0  0  0  0  0  0  0  0
   58.6741   15.9959   33.1652 C   0  0  0  0  0  0  0  0  0  0  0  0
   56.8254   17.5474   31.4984 O   0  0  0  0  0  0  0  0  0  0  0  0
   56.8765   18.7998   30.8855 C   0  0  2  0  0  0  0  0  0  0  0  0
   58.2831   19.0934   30.3587 C   0  0  2  0  0  0  0  0  0  0  0  0
   56.5568   19.9090   31.9134 C   0  0  2  0  0  0  0  0  0  0  0  0
   57.1712   21.1077   31.6429 O   0  0  0  0  0  0  0  0  0  0  0  0
   58.6753   18.4203   29.3019 O   0  0  0  0  0  0  0  0  0  0  0  0
   59.1690   19.7428   31.2127 C   0  0  2  0  0  0  0  0  0  0  0  0
   58.6973   21.0077   31.7403 C   0  0  0  0  0  0  0  0  0  0  0  0
   60.5590   19.9009   30.9587 O   0  0  0  0  0  0  0  0  0  0  0  0
   56.8092   19.3099   33.2657 O   0  0  0  0  0  0  0  0  0  0  0  0
  2  1  1  6
  1  3  1  0
  3  4  1  0
  2  5  1  0
  2  6  1  0
  4  7  1  0
  6  7  1  1
  4  8  1  6
  5  9  1  0
  9 10  1  6
  6 11  1  0
  9 11  1  0
 10 12  1  0
 13 12  1  1
 13 14  1  0
 13 15  1  0
 15 16  1  0
 14 17  1  1
 14 18  1  0
 16 19  1  0
 18 19  1  0
 18 20  1  6
 15 21  1  1
M  END
$$$$
6
     RDKit          3D

 14 14  0  0  0  0  0  0  0  0999 V2000
   60.8156   12.4758   33.1898 C   0  0  0  0  0  0  0  0  0  0  0  0
   61.0696   13.0801   34.2243 C   0  0  0  0  0  0  0  0  0  0  0  0
   61.9027   12.5407   35.2739 C   0  0  0  0  0  0  0  0  0  0  0  0
   60.5482   14.3641   34.4431 C   0  0  0  0  0  0  0  0  0  0  0  0
   62.5660   11.4436   35.1345 F   0  0  0  0  0  0  0  0  0  0  0  0
   59.7242   15.0486   33.5603 C   0  0  1  0  0  0  0  0  0  0  0  0
   62.0799   13.0307   36.4738 F   0  0  0  0  0  0  0  0  0  0  0  0
   59.1843   16.3552   33.7089 C   0  0  0  0  0  0  0  0  0  0  0  0
   59.4848   14.3967   32.2712 C   0  0  0  0  0  0  0  0  0  0  0  0
   58.0010   16.6480   33.1928 C   0  0  0  0  0  0  0  0  0  0  0  0
   57.6153   18.0642   33.2916 C   0  0  0  0  0  0  0  0  0  0  0  0
   60.0365   13.0436   32.1169 C   0  0  0  0  0  0  0  0  0  0  0  0
   56.2940   18.3505   33.1527 O   0  0  0  0  0  0  0  0  0  0  0  0
   58.3865   19.1197   33.4172 O   0  0  0  0  0  0  0  0  0  0  0  0
  1  2  1  0
  2  3  1  0
  2  4  1  0
  3  5  1  0
  4  6  1  0
  3  7  1  0
  6  8  1  6
  6  9  1  0
  8 10  1  0
 10 11  1  0
  1 12  1  0
  9 12  1  0
 11 13  2  0
 11 14  1  0
M  END
$$$$
60
     RDKit          3D

 21 23  0  0  0  0  0  0  0  0999 V2000
   62.6946   13.2798   34.8710 C   0  0  0  0  0  0  0  0  0  0  0  0
   62.4127   14.5040   35.3114 C   0  0  1  0  0  0  0  0  0  0  0  0
   63.1565   15.0470   36.2685 C   0  0  0  0  0  0  0  0  0  0  0  0
   62.0672   15.3941   34.1859 O   0  0  0  0  0  0  0  0  0  0  0  0
   61.7272   12.3025   34.4936 C   0  0  0  0  0  0  0  0  0  0  0  0
   63.9116   14.0739   37.0032 O   0  0  0  0  0  0  0  0  0  0  0  0
   60.7050   16.0089   34.1280 C   0  0  1  0  0  0  0  0  0  0  0  0
   60.4510   12.8506   34.3848 O   0  0  0  0  0  0  0  0  0  0  0  0
   60.6839   17.2690   33.9706 O   0  0  0  0  0  0  0  0  0  0  0  0
   59.5378   18.1105   33.7108 C   0  0  0  0  0  0  0  0  0  0  0  0
   60.2465   13.8912   33.3260 C   0  0  0  0  0  0  0  0  0  0  0  0
   59.9710   15.2679   33.0778 C   0  0  1  0  0  0  0  0  0  0  0  0
   58.5957   15.5607   33.1328 O   0  0  0  0  0  0  0  0  0  0  0  0
   58.6569   17.1567   32.6895 C   0  0  2  0  0  0  0  0  0  0  0  0
   58.5586   17.1614   31.3428 C   0  0  2  0  0  0  0  0  0  0  0  0
   58.8181   18.6230   30.8738 O   0  0  0  0  0  0  0  0  0  0  0  0
   57.6666   16.6739   30.3850 C   0  0  0  0  0  0  0  0  0  0  0  0
   57.3905   17.5537   29.4186 C   0  0  0  0  0  0  0  0  0  0  0  0
   58.0613   18.8989   29.8083 C   0  0  0  0  0  0  0  0  0  0  0  0
   57.9399   20.0587   29.4686 O   0  0  0  0  0  0  0  0  0  0  0  0
   57.1211   15.4729   30.4310 O   0  0  0  0  0  0  0  0  0  0  0  0
  1  2  1  0
  2  3  1  6
  2  4  1  0
  1  5  1  0
  3  6  1  0
  7  4  1  6
  5  8  1  0
  7  9  1  0
  9 10  1  0
  8 11  1  0
  7 12  1  0
 12 11  1  1
 12 13  1  0
 14 10  1  6
 13 14  1  0
 14 15  1  0
 15 16  1  1
 15 17  1  0
 17 18  1  0
 16 19  1  0
 18 19  1  0
 19 20  2  0
 17 21  2  0
M  END
$$$$
61
     RDKit          3D

 21 22  0  0  0  0  0  0  0  0999 V2000
   61.1673   12.3367   33.6847 C   0  0  0  0  0  0  0  0  0  0  0  0
   60.3417   13.1827   33.0586 C   0  0  0  0  0  0  0  0  0  0  0  0
   61.6335   12.6619   34.9653 C   0  0  0  0  0  0  0  0  0  0  0  0
   61.3247   13.8773   35.5868 C   0  0  0  0  0  0  0  0  0  0  0  0
   60.5883   14.7775   34.8377 C   0  0  0  0  0  0  0  0  0  0  0  0
   60.2013   14.4517   33.6277 C   0  0  0  0  0  0  0  0  0  0  0  0
   59.3404   15.5468   32.8500 C   0  0  2  0  0  0  0  0  0  0  0  0
   59.0115   15.4472   31.6080 N   0  0  0  0  0  0  0  0  0  0  0  0
   58.9746   16.7462   33.4873 N   0  0  0  0  0  0  0  0  0  0  0  0
   58.4415   17.6474   33.0638 C   0  0  0  0  0  0  0  0  0  0  0  0
   58.2778   16.4076   30.9511 C   0  0  0  0  0  0  0  0  0  0  0  0
   58.0840   18.8763   33.7135 O   0  0  0  0  0  0  0  0  0  0  0  0
   58.0243   17.6360   31.6109 C   0  0  1  0  0  0  0  0  0  0  0  0
   57.2572   18.7678   30.9237 C   0  0  2  0  0  0  0  0  0  0  0  0
   57.6587   19.0842   29.6909 C   0  0  0  0  0  0  0  0  0  0  0  0
   56.2219   19.5190   31.5321 C   0  0  2  0  0  0  0  0  0  0  0  0
   58.8983   18.4836   29.0847 O   0  0  0  0  0  0  0  0  0  0  0  0
   55.5886   19.1278   32.6606 F   0  0  0  0  0  0  0  0  0  0  0  0
   55.2399   19.9860   30.6298 C   0  0  2  0  0  0  0  0  0  0  0  0
   54.4650   21.0907   31.1271 F   0  0  0  0  0  0  0  0  0  0  0  0
   54.4876   18.8897   30.0852 C   0  0  0  0  0  0  0  0  0  0  0  0
  1  2  1  0
  1  3  1  0
  3  4  1  0
  4  5  1  0
  2  6  1  0
  5  6  1  0
  7  6  1  6
  7  8  1  0
  7  9  1  0
  9 10  1  0
  8 11  1  0
 10 12  2  0
 10 13  1  0
 13 11  1  1
 13 14  1  0
 14 15  1  1
 14 16  1  0
 15 17  1  0
 16 18  1  1
 16 19  1  0
 19 20  1  0
 19 21  1  1
M  END
$$$$
62
     RDKit          3D

 21 23  0  0  0  0  0  0  0  0999 V2000
   61.1673   12.3367   33.6847 C   0  0  0  0  0  0  0  0  0  0  0  0
   60.3417   13.1827   33.0586 C   0  0  0  0  0  0  0  0  0  0  0  0
   61.6335   12.6619   34.9653 C   0  0  0  0  0  0  0  0  0  0  0  0
   61.3247   13.8773   35.5868 C   0  0  0  0  0  0  0  0  0  0  0  0
   60.5883   14.7775   34.8377 C   0  0  0  0  0  0  0  0  0  0  0  0
   60.2013   14.4517   33.6277 C   0  0  0  0  0  0  0  0  0  0  0  0
   59.3404   15.5468   32.8500 C   0  0  2  0  0  0  0  0  0  0  0  0
   59.0115   15.4472   31.6080 N   0  0  0  0  0  0  0  0  0  0  0  0
   58.9746   16.7462   33.4873 N   0  0  0  0  0  0  0  0  0  0  0  0
   58.4415   17.6474   33.0638 C   0  0  0  0  0  0  0  0  0  0  0  0
   58.2778   16.4076   30.9511 C   0  0  0  0  0  0  0  0  0  0  0  0
   58.0840   18.8763   33.7135 O   0  0  0  0  0  0  0  0  0  0  0  0
   58.0243   17.6360   31.6109 C   0  0  1  0  0  0  0  0  0  0  0  0
   57.2572   18.7678   30.9237 C   0  0  2  0  0  0  0  0  0  0  0  0
   57.6587   19.0842   29.6909 C   0  0  1  0  0  0  0  0  0  0  0  0
   56.2219   19.5190   31.5321 C   0  0  2  0  0  0  0  0  0  0  0  0
   58.8983   18.4836   29.0847 O   0  0  0  0  0  0  0  0  0  0  0  0
   55.5886   19.1278   32.6606 F   0  0  0  0  0  0  0  0  0  0  0  0
   55.2399   19.9860   30.6298 C   0  0  0  0  0  0  0  0  0  0  0  0
   56.8477   19.8778   28.9243 C   0  0  0  0  0  0  0  0  0  0  0  0
   55.6777   20.3982   29.5245 C   0  0  0  0  0  0  0  0  0  0  0  0
  1  2  1  0
  1  3  1  0
  3  4  1  0
  4  5  1  0
  2  6  1  0
  5  6  1  0
  7  6  1  6
  7  8  1  0
  7  9  1  0
  9 10  1  0
  8 11  1  0
 10 12  2  0
 10 13  1  0
 13 11  1  1
 14 13  1  1
 14 15  1  0
 14 16  1  0
 15 17  1  6
 16 18  1  1
 16 19  1  0
 15 20  1  0
 19 21  1  0
 20 21  1  0
M  END
$$$$
63
     RDKit          3D

 21 23  0  0  0  0  0  0  0  0999 V2000
   56.0267   17.9876   33.9524 O   0  0  0  0  0  0  0  0  0  0  0  0
   56.9684   17.9993   33.0146 C   0  0  0  0  0  0  0  0  0  0  0  0
   56.7467   17.2623   31.7573 N   0  0  0  0  0  0  0  0  0  0  0  0
   58.2935   18.3560   33.1509 C   0  0  1  0  0  0  0  0  0  0  0  0
   57.7296   17.1567   30.7770 C   0  0  1  0  0  0  0  0  0  0  0  0
   55.5056   16.6538   31.4677 C   0  0  0  0  0  0  0  0  0  0  0  0
   54.6862   17.2332   30.5532 C   0  0  0  0  0  0  0  0  0  0  0  0
   58.8362   18.2188   31.0271 C   0  0  2  0  0  0  0  0  0  0  0  0
   58.3736   15.9568   30.5456 O   0  0  0  0  0  0  0  0  0  0  0  0
   58.8939   19.0502   32.0617 N   0  0  0  0  0  0  0  0  0  0  0  0
   60.1697   19.6889   32.4512 C   0  0  0  0  0  0  0  0  0  0  0  0
   60.6521   19.3333   33.5513 O   0  0  0  0  0  0  0  0  0  0  0  0
   59.9885   19.1542   34.4714 C   0  0  0  0  0  0  0  0  0  0  0  0
   58.9569   18.9165   29.6253 O   0  0  0  0  0  0  0  0  0  0  0  0
   55.0669   15.6272   32.0375 O   0  0  0  0  0  0  0  0  0  0  0  0
   58.5902   18.9416   34.3859 O   0  0  0  0  0  0  0  0  0  0  0  0
   54.8833   18.4426   29.9955 C   0  0  0  0  0  0  0  0  0  0  0  0
   53.5707   16.3806   29.9851 C   0  0  0  0  0  0  0  0  0  0  0  0
   53.9737   19.0259   29.0325 C   0  0  0  0  0  0  0  0  0  0  0  0
   52.8384   16.6728   29.0494 C   0  0  0  0  0  0  0  0  0  0  0  0
   52.9162   18.0731   28.5139 C   0  0  0  0  0  0  0  0  0  0  0  0
  1  2  2  0
  2  3  1  0
  2  4  1  0
  3  5  1  0
  3  6  1  0
  6  7  1  0
  5  8  1  0
  5  9  1  1
  4 10  1  0
  8 10  1  0
 10 11  1  0
 11 12  1  0
 12 13  1  0
  8 14  1  6
  6 15  2  0
  4 16  1  1
 13 16  1  0
  7 17  1  0
  7 18  1  0
 17 19  1  0
 18 20  1  0
 19 21  1  0
 20 21  1  0
M  END
$$$$
64
     RDKit          3D

 21 23  0  0  0  0  0  0  0  0999 V2000
   60.8156   12.4758   33.1898 C   0  0  0  0  0  0  0  0  0  0  0  0
   60.0189   13.5884   32.9009 C   0  0  0  0  0  0  0  0  0  0  0  0
   60.1957   14.6976   33.6170 C   0  0  1  0  0  0  0  0  0  0  0  0
   61.4538   12.4004   34.4455 C   0  0  0  0  0  0  0  0  0  0  0  0
   59.5512   15.9933   33.2463 C   0  0  2  0  0  0  0  0  0  0  0  0
   60.9421   14.7461   34.8227 C   0  0  0  0  0  0  0  0  0  0  0  0
   61.6274   13.6207   35.2309 C   0  0  1  0  0  0  0  0  0  0  0  0
   62.4196   13.6742   36.4760 C   0  0  0  0  0  0  0  0  0  0  0  0
   59.9337   17.2031   33.6684 O   0  0  0  0  0  0  0  0  0  0  0  0
   59.7113   18.3920   32.9463 C   0  0  1  0  0  0  0  0  0  0  0  0
   58.1476   15.8752   33.3448 O   0  0  0  0  0  0  0  0  0  0  0  0
   57.4088   16.5081   32.2878 C   0  0  0  0  0  0  0  0  0  0  0  0
   58.7406   18.2838   31.8825 C   0  0  1  0  0  0  0  0  0  0  0  0
   59.6394   19.6293   33.8233 C   0  0  0  0  0  0  0  0  0  0  0  0
   60.6674   20.4410   33.9208 O   0  0  0  0  0  0  0  0  0  0  0  0
   59.0450   19.2247   30.8021 O   0  0  0  0  0  0  0  0  0  0  0  0
   58.2532   17.1046   31.4264 C   0  0  2  0  0  0  0  0  0  0  0  0
   57.5181   17.4470   30.1387 C   0  0  1  0  0  0  0  0  0  0  0  0
   56.1698   16.2763   32.2606 O   0  0  0  0  0  0  0  0  0  0  0  0
   58.1650   18.7248   29.6660 C   0  0  0  0  0  0  0  0  0  0  0  0
   57.6475   16.3637   29.1457 N   0  0  0  0  0  0  0  0  0  0  0  0
  1  2  1  0
  3  2  1  1
  1  4  1  0
  3  5  1  0
  3  6  1  0
  4  7  1  0
  6  7  1  0
  7  8  1  1
  5  9  1  1
  9 10  1  0
  5 11  1  0
 11 12  1  0
 10 13  1  0
 10 14  1  1
 14 15  1  0
 13 16  1  6
 17 12  1  1
 13 17  1  0
 17 18  1  0
 12 19  2  0
 16 20  1  0
 18 20  1  0
 18 21  1  6
M  END
$$$$
65
     RDKit          3D

 21 22  0  0  0  0  0  0  0  0999 V2000
   56.0267   17.9876   33.9524 O   0  0  0  0  0  0  0  0  0  0  0  0
   56.9684   17.9993   33.0146 C   0  0  0  0  0  0  0  0  0  0  0  0
   56.7467   17.2623   31.7573 N   0  0  0  0  0  0  0  0  0  0  0  0
   58.2935   18.3560   33.1509 C   0  0  0  0  0  0  0  0  0  0  0  0
   57.7296   17.1567   30.7770 C   0  0  1  0  0  0  0  0  0  0  0  0
   55.5056   16.6538   31.4677 C   0  0  0  0  0  0  0  0  0  0  0  0
   54.6862   17.2332   30.5532 C   0  0  1  0  0  0  0  0  0  0  0  0
   58.8362   18.2188   31.0271 C   0  0  0  0  0  0  0  0  0  0  0  0
   58.3736   15.9568   30.5456 O   0  0  0  0  0  0  0  0  0  0  0  0
   58.8939   19.0502   32.0617 N   0  0  0  0  0  0  0  0  0  0  0  0
   54.8942   18.4966   30.0788 C   0  0  2  0  0  0  0  0  0  0  0  0
   60.1891   19.6857   32.4487 C   0  0  0  0  0  0  0  0  0  0  0  0
   53.5985   16.3125   30.0800 C   0  0  2  0  0  0  0  0  0  0  0  0
   59.6915   18.4077   30.0014 O   0  0  0  0  0  0  0  0  0  0  0  0
   55.8384   19.3383   30.5429 O   0  0  0  0  0  0  0  0  0  0  0  0
   60.4347   19.7883   33.6502 O   0  0  0  0  0  0  0  0  0  0  0  0
   55.4828   20.7654   30.2670 C   0  0  0  0  0  0  0  0  0  0  0  0
   53.5009   14.9276   30.4539 C   0  0  0  0  0  0  0  0  0  0  0  0
   53.8419   18.8116   29.1707 C   0  0  0  0  0  0  0  0  0  0  0  0
   52.8649   17.9505   28.6477 C   0  0  0  0  0  0  0  0  0  0  0  0
   52.6902   16.7461   29.2009 C   0  0  0  0  0  0  0  0  0  0  0  0
  1  2  2  0
  2  3  1  0
  2  4  1  0
  3  5  1  0
  3  6  1  0
  7  6  1  6
  5  8  1  0
  5  9  1  1
  4 10  1  0
  8 10  1  0
  7 11  1  0
 10 12  1  0
  7 13  1  0
  8 14  2  0
 11 15  1  1
 12 16  1  0
 15 17  1  0
 13 18  1  6
 11 19  1  0
 19 20  1  0
 13 21  1  0
 20 21  1  0
M  END
$$$$
66
     RDKit          3D

 21 23  0  0  0  0  0  0  0  0999 V2000
   60.8156   12.4758   33.1898 C   0  0  0  0  0  0  0  0  0  0  0  0
   60.0189   13.5884   32.9009 C   0  0  0  0  0  0  0  0  0  0  0  0
   60.1957   14.6976   33.6170 C   0  0  1  0  0  0  0  0  0  0  0  0
   61.4538   12.4004   34.4455 C   0  0  0  0  0  0  0  0  0  0  0  0
   59.5512   15.9933   33.2463 C   0  0  0  0  0  0  0  0  0  0  0  0
   60.9421   14.7461   34.8227 C   0  0  0  0  0  0  0  0  0  0  0  0
   61.6274   13.6207   35.2309 C   0  0  1  0  0  0  0  0  0  0  0  0
   62.4196   13.6742   36.4760 C   0  0  0  0  0  0  0  0  0  0  0  0
   59.9337   17.2031   33.6684 O   0  0  0  0  0  0  0  0  0  0  0  0
   58.4479   16.0551   32.4387 C   0  0  0  0  0  0  0  0  0  0  0  0
   57.9684   17.4350   32.2070 C   0  0  1  0  0  0  0  0  0  0  0  0
   59.2430   18.2522   33.0359 C   0  0  1  0  0  0  0  0  0  0  0  0
   57.9174   17.8121   30.8500 C   0  0  2  0  0  0  0  0  0  0  0  0
   59.2903   19.5814   33.1981 C   0  0  1  0  0  0  0  0  0  0  0  0
   56.5540   17.5740   32.9858 C   0  0  0  0  0  0  0  0  0  0  0  0
   58.8592   17.4196   30.0171 N   0  0  0  0  0  0  0  0  0  0  0  0
   58.5563   17.7565   28.6642 N   0  0  0  0  0  0  0  0  0  0  0  0
   57.8775   19.3832   30.7582 C   0  0  0  0  0  0  0  0  0  0  0  0
   57.0679   19.9430   30.0187 C   0  0  0  0  0  0  0  0  0  0  0  0
   60.0660   20.2544   33.9302 C   0  0  0  0  0  0  0  0  0  0  0  0
   58.8716   20.1197   31.7358 C   0  0  0  0  0  0  0  0  0  0  0  0
  1  2  1  0
  2  3  1  0
  1  4  1  0
  3  5  1  1
  3  6  1  0
  4  7  1  0
  6  7  1  0
  7  8  1  1
  5  9  1  0
  5 10  1  0
 10 11  1  0
 12  9  1  1
 11 12  1  0
 11 13  1  0
 12 14  1  0
 11 15  1  1
 13 16  1  6
 16 17  1  0
 13 18  1  0
 18 19  2  0
 14 20  1  6
 14 21  1  0
 18 21  1  0
M  END
$$$$
67
     RDKit          3D

 21 23  0  0  0  0  0  0  0  0999 V2000
   61.1673   12.3367   33.6847 C   0  0  0  0  0  0  0  0  0  0  0  0
   60.3417   13.1827   33.0586 C   0  0  0  0  0  0  0  0  0  0  0  0
   61.6132   12.8008   34.9250 C   0  0  0  0  0  0  0  0  0  0  0  0
   61.3032   14.0192   35.4953 C   0  0  1  0  0  0  0  0  0  0  0  0
   60.1803   14.5198   33.5076 C   0  0  2  0  0  0  0  0  0  0  0  0
   61.9751   14.3831   36.7395 N   0  0  0  0  0  0  0  0  0  0  0  0
   60.6681   14.8988   34.7442 C   0  0  2  0  0  0  0  0  0  0  0  0
   59.3113   15.5578   32.6838 C   0  0  0  0  0  0  0  0  0  0  0  0
   58.7330   15.2840   31.6786 O   0  0  0  0  0  0  0  0  0  0  0  0
   59.2005   16.8839   33.0490 N   0  0  0  0  0  0  0  0  0  0  0  0
   59.7325   17.3780   34.2284 C   0  0  0  0  0  0  0  0  0  0  0  0
   60.4758   16.3740   35.1110 N   0  0  0  0  0  0  0  0  0  0  0  0
   58.5222   17.9213   32.3329 C   0  0  1  0  0  0  0  0  0  0  0  0
   57.3152   18.0723   32.7243 C   0  0  0  0  0  0  0  0  0  0  0  0
   56.5612   19.1374   31.9507 C   0  0  0  0  0  0  0  0  0  0  0  0
   57.3248   20.2825   31.5898 C   0  0  2  0  0  0  0  0  0  0  0  0
   59.4105   18.7176   31.5331 C   0  0  0  0  0  0  0  0  0  0  0  0
   56.6772   21.2133   30.7627 O   0  0  0  0  0  0  0  0  0  0  0  0
   55.3653   20.8609   30.3507 C   0  0  0  0  0  0  0  0  0  0  0  0
   58.5161   19.7280   30.7772 C   0  0  1  0  0  0  0  0  0  0  0  0
   58.0497   19.0186   29.5009 N   0  0  0  0  0  0  0  0  0  0  0  0
  1  2  1  0
  1  3  1  0
  3  4  1  0
  5  2  1  1
  4  6  1  6
  4  7  1  0
  5  7  1  0
  5  8  1  0
  8  9  2  0
  8 10  1  0
 10 11  1  0
  7 12  1  6
 11 12  1  0
 13 10  1  1
 13 14  1  0
 14 15  1  0
 15 16  1  0
 13 17  1  0
 16 18  1  6
 18 19  1  0
 16 20  1  0
 17 20  1  0
 20 21  1  6
M  END
$$$$
68
     RDKit          3D

 21 23  0  0  0  0  0  0  0  0999 V2000
   56.0267   17.9876   33.9524 O   0  0  0  0  0  0  0  0  0  0  0  0
   56.9684   17.9993   33.0146 C   0  0  0  0  0  0  0  0  0  0  0  0
   56.7467   17.2623   31.7573 N   0  0  0  0  0  0  0  0  0  0  0  0
   58.2935   18.3560   33.1509 C   0  0  0  0  0  0  0  0  0  0  0  0
   57.7296   17.1567   30.7770 C   0  0  1  0  0  0  0  0  0  0  0  0
   55.5056   16.6538   31.4677 C   0  0  0  0  0  0  0  0  0  0  0  0
   54.6862   17.2332   30.5532 C   0  0  0  0  0  0  0  0  0  0  0  0
   58.8362   18.2188   31.0271 C   0  0  0  0  0  0  0  0  0  0  0  0
   58.3736   15.9568   30.5456 O   0  0  0  0  0  0  0  0  0  0  0  0
   58.8939   19.0502   32.0617 N   0  0  0  0  0  0  0  0  0  0  0  0
   60.1697   19.6889   32.4512 C   0  0  1  0  0  0  0  0  0  0  0  0
   55.6721   15.1521   31.0766 C   0  0  0  0  0  0  0  0  0  0  0  0
   54.2386   14.6570   30.8014 C   0  0  0  0  0  0  0  0  0  0  0  0
   59.6765   18.4147   29.9932 O   0  0  0  0  0  0  0  0  0  0  0  0
   59.9666   20.4971   33.6181 C   0  0  0  0  0  0  0  0  0  0  0  0
   53.4425   16.7286   30.1861 C   0  0  0  0  0  0  0  0  0  0  0  0
   53.4592   15.3609   30.0022 C   0  0  0  0  0  0  0  0  0  0  0  0
   60.6639   20.0677   34.7710 C   0  0  0  0  0  0  0  0  0  0  0  0
   61.5395   19.3192   34.7744 C   0  0  0  0  0  0  0  0  0  0  0  0
   61.7402   18.4220   33.6938 C   0  0  0  0  0  0  0  0  0  0  0  0
   60.9201   18.4306   32.6999 N   0  0  0  0  0  0  0  0  0  0  0  0
  1  2  2  0
  2  3  1  0
  2  4  1  0
  3  5  1  0
  3  6  1  0
  6  7  1  0
  5  8  1  0
  5  9  1  1
  4 10  1  0
  8 10  1  0
 11 10  1  1
  6 12  1  0
 12 13  1  0
  8 14  2  0
 11 15  1  0
  7 16  1  0
 13 17  1  0
 16 17  1  0
 15 18  1  0
 18 19  1  0
 19 20  1  0
 11 21  1  0
 20 21  1  0
M  END
$$$$
69
     RDKit          3D

 21 24  0  0  0  0  0  0  0  0999 V2000
   62.1862   12.6853   34.4132 C   0  0  0  0  0  0  0  0  0  0  0  0
   61.0478   12.8507   33.7557 C   0  0  0  0  0  0  0  0  0  0  0  0
   60.5047   14.0769   33.7872 C   0  0  2  0  0  0  0  0  0  0  0  0
   59.3386   14.4448   33.0203 O   0  0  0  0  0  0  0  0  0  0  0  0
   62.8652   13.6439   35.1942 C   0  0  0  0  0  0  0  0  0  0  0  0
   61.1683   15.1544   34.5789 C   0  0  1  0  0  0  0  0  0  0  0  0
   60.4611   16.4169   34.5236 C   0  0  0  0  0  0  0  0  0  0  0  0
   58.9993   15.7442   33.0815 C   0  0  2  0  0  0  0  0  0  0  0  0
   62.2888   14.9363   35.3847 C   0  0  0  0  0  0  0  0  0  0  0  0
   59.4305   16.6826   33.7928 C   0  0  0  0  0  0  0  0  0  0  0  0
   58.7488   18.0205   33.8180 C   0  0  0  0  0  0  0  0  0  0  0  0
   57.8455   16.1909   32.2844 C   0  0  0  0  0  0  0  0  0  0  0  0
   57.8012   18.3265   33.0296 C   0  0  1  0  0  0  0  0  0  0  0  0
   57.1711   15.0433   31.4344 O   0  0  0  0  0  0  0  0  0  0  0  0
   57.3069   17.4279   32.2497 C   0  0  0  0  0  0  0  0  0  0  0  0
   56.1591   15.6799   30.7532 C   0  0  2  0  0  0  0  0  0  0  0  0
   57.2451   19.6318   33.0644 O   0  0  0  0  0  0  0  0  0  0  0  0
   56.1228   17.1075   31.0870 C   0  0  1  0  0  0  0  0  0  0  0  0
   55.0010   17.6885   31.7001 O   0  0  0  0  0  0  0  0  0  0  0  0
   55.0627   14.8054   31.0971 C   0  0  0  0  0  0  0  0  0  0  0  0
   54.0667   14.8693   29.9586 O   0  0  0  0  0  0  0  0  0  0  0  0
  1  2  1  0
  3  2  1  6
  3  4  1  0
  1  5  1  0
  3  6  1  0
  6  7  1  1
  8  4  1  1
  5  9  1  0
  6  9  1  0
  7 10  1  0
  8 10  1  0
 10 11  1  0
  8 12  1  0
 11 13  1  0
 12 14  1  0
 12 15  1  0
 13 15  1  0
 14 16  1  0
 13 17  1  1
 15 18  1  0
 16 18  1  0
 18 19  1  1
 16 20  1  1
 20 21  1  0
M  END
$$$$
7
     RDKit          3D

 15 15  0  0  0  0  0  0  0  0999 V2000
   56.4766   17.7436   34.0590 O   0  0  0  0  0  0  0  0  0  0  0  0
   57.1822   17.7567   33.1109 C   0  0  0  0  0  0  0  0  0  0  0  0
   58.2935   18.4888   32.9964 N   0  0  0  0  0  0  0  0  0  0  0  0
   56.8719   17.2695   31.7506 C   0  0  0  0  0  0  0  0  0  0  0  0
   55.8050   16.4479   31.5664 C   0  0  0  0  0  0  0  0  0  0  0  0
   58.9745   18.6396   31.7240 C   0  0  0  0  0  0  0  0  0  0  0  0
   59.0424   19.2124   34.0795 C   0  0  0  0  0  0  0  0  0  0  0  0
   54.7494   16.7746   30.7422 C   0  0  0  0  0  0  0  0  0  0  0  0
   60.0355   19.0334   31.4706 O   0  0  0  0  0  0  0  0  0  0  0  0
   58.0006   17.7236   30.8711 C   0  0  0  0  0  0  0  0  0  0  0  0
   59.5348   20.5079   33.8606 C   0  0  0  0  0  0  0  0  0  0  0  0
   53.7436   15.8160   30.3962 C   0  0  0  0  0  0  0  0  0  0  0  0
   58.5507   17.6884   29.5524 N   0  0  0  0  0  0  0  0  0  0  0  0
   54.2248   14.5581   30.0013 C   0  0  0  0  0  0  0  0  0  0  0  0
   60.3451   20.9824   34.9804 C   0  0  0  0  0  0  0  0  0  0  0  0
  1  2  2  0
  2  3  1  0
  2  4  1  0
  4  5  1  0
  3  6  1  0
  3  7  1  0
  5  8  1  0
  6  9  2  0
  4 10  2  0
  6 10  1  0
  7 11  1  0
  8 12  1  0
 10 13  1  0
 12 14  1  0
 11 15  1  0
M  END
$$$$
70
     RDKit          3D

 21 23  0  0  0  0  0  0  0  0999 V2000
   62.6946   13.2798   34.8710 C   0  0  0  0  0  0  0  0  0  0  0  0
   62.4127   14.5040   35.3114 C   0  0  0  0  0  0  0  0  0  0  0  0
   61.4928   12.7443   34.4201 C   0  0  0  0  0  0  0  0  0  0  0  0
   61.2560   15.2053   35.0236 C   0  0  0  0  0  0  0  0  0  0  0  0
   60.5179   13.5794   33.9746 C   0  0  0  0  0  0  0  0  0  0  0  0
   60.3291   14.7468   34.3065 C   0  0  0  0  0  0  0  0  0  0  0  0
   59.2707   15.5188   33.8649 N   0  0  0  0  0  0  0  0  0  0  0  0
   58.7363   15.5242   32.5003 C   0  0  0  0  0  0  0  0  0  0  0  0
   58.4051   16.1564   34.6705 C   0  0  0  0  0  0  0  0  0  0  0  0
   59.4307   15.1231   31.5190 O   0  0  0  0  0  0  0  0  0  0  0  0
   57.4429   16.9779   33.8921 N   0  0  0  0  0  0  0  0  0  0  0  0
   57.5519   16.3287   32.5003 C   0  0  1  0  0  0  0  0  0  0  0  0
   56.8376   16.7185   31.3320 C   0  0  2  0  0  0  0  0  0  0  0  0
   55.8307   15.9264   30.9754 C   0  0  0  0  0  0  0  0  0  0  0  0
   57.6538   17.1511   30.1567 C   0  0  2  0  0  0  0  0  0  0  0  0
   55.0512   16.1810   29.7986 C   0  0  0  0  0  0  0  0  0  0  0  0
   58.4761   18.4068   30.3907 C   0  0  0  0  0  0  0  0  0  0  0  0
   56.7710   17.2490   29.0234 N   0  0  0  0  0  0  0  0  0  0  0  0
   57.7875   19.5289   30.2918 O   0  0  0  0  0  0  0  0  0  0  0  0
   59.7515   18.3477   30.3653 N   0  0  0  0  0  0  0  0  0  0  0  0
   55.9052   16.3843   28.6551 C   0  0  0  0  0  0  0  0  0  0  0  0
  1  2  1  0
  1  3  1  0
  2  4  1  0
  3  5  1  0
  4  6  1  0
  5  6  1  0
  6  7  1  0
  7  8  1  0
  7  9  1  0
  8 10  2  0
  9 11  1  0
  8 12  1  0
 12 11  1  6
 12 13  1  0
 13 14  1  6
 13 15  1  0
 14 16  1  0
 15 17  1  1
 15 18  1  0
 17 19  2  0
 17 20  1  0
 16 21  1  0
 18 21  1  0
M  END
$$$$
71
     RDKit          3D

 21 22  0  0  0  0  0  0  0  0999 V2000
   62.6946   13.2798   34.8710 C   0  0  0  0  0  0  0  0  0  0  0  0
   61.7593   12.7551   34.2011 C   0  0  0  0  0  0  0  0  0  0  0  0
   60.7203   13.6125   33.6726 C   0  0  0  0  0  0  0  0  0  0  0  0
   60.8340   14.8854   34.2105 C   0  0  0  0  0  0  0  0  0  0  0  0
   61.7489   15.3768   35.0665 C   0  0  0  0  0  0  0  0  0  0  0  0
   62.7383   14.4793   35.4632 C   0  0  0  0  0  0  0  0  0  0  0  0
   59.7499   15.8176   33.8016 C   0  0  0  0  0  0  0  0  0  0  0  0
   59.4660   16.9183   34.5180 O   0  0  0  0  0  0  0  0  0  0  0  0
   59.0172   15.7562   32.6763 N   0  0  0  0  0  0  0  0  0  0  0  0
   57.8690   16.5670   32.3563 C   0  0  1  0  0  0  0  0  0  0  0  0
   57.6912   16.7163   30.9845 C   0  0  0  0  0  0  0  0  0  0  0  0
   57.0162   17.0687   33.2588 O   0  0  0  0  0  0  0  0  0  0  0  0
   58.0742   16.1523   29.9757 O   0  0  0  0  0  0  0  0  0  0  0  0
   56.6802   17.7442   30.6898 N   0  0  0  0  0  0  0  0  0  0  0  0
   56.5784   18.5334   29.5398 C   0  0  1  0  0  0  0  0  0  0  0  0
   56.2834   17.9607   32.4744 S   0  0  0  0  0  0  0  0  0  0  0  0
   55.2276   18.8317   29.5845 O   0  0  0  0  0  0  0  0  0  0  0  0
   57.5371   19.5486   29.3929 C   0  0  0  0  0  0  0  0  0  0  0  0
   56.5287   19.2837   33.1643 O   0  0  0  0  0  0  0  0  0  0  0  0
   54.7833   17.6352   32.1334 O   0  0  0  0  0  0  0  0  0  0  0  0
   58.0999   20.0188   30.5080 O   0  0  0  0  0  0  0  0  0  0  0  0
  1  2  1  0
  2  3  1  0
  3  4  1  0
  4  5  1  0
  1  6  1  0
  5  6  1  0
  4  7  1  0
  7  8  2  0
  7  9  1  0
 10  9  1  6
 10 11  1  0
 10 12  1  0
 11 13  2  0
 11 14  1  0
 14 15  1  0
 12 16  1  0
 14 16  1  0
 15 17  1  1
 15 18  1  0
 16 19  1  0
 16 20  1  0
 18 21  1  0
M  END
$$$$
72
     RDKit          3D

 21 23  0  0  0  0  0  0  0  0999 V2000
   60.4361   12.9922   32.7047 C   0  0  0  0  0  0  0  0  0  0  0  0
   59.6121   14.0464   32.7270 C   0  0  2  0  0  0  0  0  0  0  0  0
   61.1828   12.6258   33.9161 C   0  0  0  0  0  0  0  0  0  0  0  0
   61.2015   13.5258   34.9925 C   0  0  2  0  0  0  0  0  0  0  0  0
   58.8255   14.4215   31.6745 O   0  0  0  0  0  0  0  0  0  0  0  0
   58.5998   15.8105   31.7266 C   0  0  2  0  0  0  0  0  0  0  0  0
   60.6232   14.6223   34.8910 C   0  0  0  0  0  0  0  0  0  0  0  0
   59.8024   15.0011   33.8275 C   0  0  1  0  0  0  0  0  0  0  0  0
   62.0974   13.2698   36.2014 C   0  0  0  0  0  0  0  0  0  0  0  0
   58.9879   16.0653   33.1824 C   0  0  0  0  0  0  0  0  0  0  0  0
   57.7827   16.6221   31.0985 C   0  0  0  0  0  0  0  0  0  0  0  0
   57.5874   16.4757   29.6907 N   0  0  0  0  0  0  0  0  0  0  0  0
   56.4713   16.4791   29.0137 C   0  0  0  0  0  0  0  0  0  0  0  0
   57.0442   17.6528   31.5985 O   0  0  0  0  0  0  0  0  0  0  0  0
   55.3347   17.0265   29.7990 C   0  0  0  0  0  0  0  0  0  0  0  0
   55.7810   18.0414   30.8126 C   0  0  2  0  0  0  0  0  0  0  0  0
   54.0769   16.8649   29.6152 C   0  0  0  0  0  0  0  0  0  0  0  0
   55.9372   19.5038   30.5929 C   0  0  2  0  0  0  0  0  0  0  0  0
   56.5061   20.1907   31.6168 C   0  0  0  0  0  0  0  0  0  0  0  0
   54.5823   20.0829   30.3407 O   0  0  0  0  0  0  0  0  0  0  0  0
   57.3627   21.2816   31.2274 O   0  0  0  0  0  0  0  0  0  0  0  0
  2  1  1  6
  1  3  1  0
  3  4  1  0
  2  5  1  0
  5  6  1  0
  4  7  1  0
  2  8  1  0
  8  7  1  6
  4  9  1  6
  6 10  1  0
  8 10  1  0
  6 11  1  1
 11 12  1  0
 12 13  1  0
 11 14  1  0
 13 15  1  0
 16 14  1  6
 15 16  1  0
 15 17  2  0
 16 18  1  0
 18 19  1  0
 18 20  1  1
 19 21  1  0
M  END
$$$$
73
     RDKit          3D

 22 25  0  0  0  0  0  0  0  0999 V2000
   62.1862   12.6853   34.4132 C   0  0  0  0  0  0  0  0  0  0  0  0
   61.0478   12.8507   33.7557 C   0  0  0  0  0  0  0  0  0  0  0  0
   60.5047   14.0769   33.7872 C   0  0  2  0  0  0  0  0  0  0  0  0
   59.3386   14.4448   33.0203 O   0  0  0  0  0  0  0  0  0  0  0  0
   62.8652   13.6439   35.1942 C   0  0  0  0  0  0  0  0  0  0  0  0
   61.1683   15.1544   34.5789 C   0  0  1  0  0  0  0  0  0  0  0  0
   60.4611   16.4169   34.5236 C   0  0  0  0  0  0  0  0  0  0  0  0
   58.9993   15.7442   33.0815 C   0  0  2  0  0  0  0  0  0  0  0  0
   62.2888   14.9363   35.3847 C   0  0  0  0  0  0  0  0  0  0  0  0
   59.4305   16.6826   33.7928 C   0  0  0  0  0  0  0  0  0  0  0  0
   58.7488   18.0205   33.8180 C   0  0  0  0  0  0  0  0  0  0  0  0
   57.8455   16.1909   32.2844 C   0  0  0  0  0  0  0  0  0  0  0  0
   57.8012   18.3265   33.0296 C   0  0  1  0  0  0  0  0  0  0  0  0
   57.1711   15.0433   31.4344 O   0  0  0  0  0  0  0  0  0  0  0  0
   57.3069   17.4279   32.2497 C   0  0  0  0  0  0  0  0  0  0  0  0
   56.1591   15.6799   30.7532 C   0  0  2  0  0  0  0  0  0  0  0  0
   57.2451   19.6318   33.0644 O   0  0  0  0  0  0  0  0  0  0  0  0
   56.1228   17.1075   31.0870 C   0  0  1  0  0  0  0  0  0  0  0  0
   55.0010   17.6885   31.7001 O   0  0  0  0  0  0  0  0  0  0  0  0
   57.0041   20.0560   31.7032 C   0  0  0  0  0  0  0  0  0  0  0  0
   54.8535   15.1309   31.0765 C   0  0  0  0  0  0  0  0  0  0  0  0
   53.9572   15.1861   29.8467 O   0  0  0  0  0  0  0  0  0  0  0  0
  1  2  1  0
  3  2  1  6
  3  4  1  0
  1  5  1  0
  3  6  1  0
  6  7  1  1
  8  4  1  1
  5  9  1  0
  6  9  1  0
  7 10  1  0
  8 10  1  0
 10 11  1  0
  8 12  1  0
 11 13  1  0
 12 14  1  0
 12 15  1  0
 13 15  1  0
 14 16  1  0
 13 17  1  1
 15 18  1  0
 16 18  1  0
 18 19  1  1
 17 20  1  0
 16 21  1  1
 21 22  1  0
M  END
$$$$
74
     RDKit          3D

 22 24  0  0  0  0  0  0  0  0999 V2000
   58.6283   18.1709   29.3974 N   0  0  0  0  0  0  0  0  0  0  0  0
   57.5009   18.5367   29.8358 C   0  0  2  0  0  0  0  0  0  0  0  0
   56.7838   17.5297   30.4664 N   0  0  0  0  0  0  0  0  0  0  0  0
   56.7907   19.6977   29.5446 N   0  0  0  0  0  0  0  0  0  0  0  0
   57.3436   16.2687   30.8016 C   0  0  0  0  0  0  0  0  0  0  0  0
   55.3614   17.7536   30.5536 C   0  0  0  0  0  0  0  0  0  0  0  0
   58.1828   16.2449   31.9684 C   0  0  1  0  0  0  0  0  0  0  0  0
   55.1685   19.2126   30.3034 C   0  0  2  0  0  0  0  0  0  0  0  0
   54.2046   20.0965   30.1714 C   0  0  0  0  0  0  0  0  0  0  0  0
   54.4047   17.0048   30.8893 O   0  0  0  0  0  0  0  0  0  0  0  0
   57.9287   17.1307   33.1110 C   0  0  0  0  0  0  0  0  0  0  0  0
   59.1638   15.3376   32.2468 C   0  0  0  0  0  0  0  0  0  0  0  0
   58.5931   17.1943   34.0582 C   0  0  0  0  0  0  0  0  0  0  0  0
   59.7174   16.3137   34.2055 C   0  0  1  0  0  0  0  0  0  0  0  0
   60.5500   16.2997   35.4586 O   0  0  0  0  0  0  0  0  0  0  0  0
   59.9803   15.3915   33.3882 C   0  0  1  0  0  0  0  0  0  0  0  0
   61.0127   14.5024   33.7699 O   0  0  0  0  0  0  0  0  0  0  0  0
   60.7472   13.4369   34.6137 C   0  0  2  0  0  0  0  0  0  0  0  0
   61.3853   13.6559   35.8686 C   0  0  0  0  0  0  0  0  0  0  0  0
   62.6357   12.9009   35.9456 C   0  0  0  0  0  0  0  0  0  0  0  0
   62.7838   12.2310   34.7817 O   0  0  0  0  0  0  0  0  0  0  0  0
   61.3089   12.1914   33.8990 C   0  0  0  0  0  0  0  0  0  0  0  0
  2  1  1  6
  2  3  1  0
  2  4  1  0
  3  5  1  0
  3  6  1  0
  7  5  1  1
  4  8  1  0
  6  8  1  0
  8  9  1  6
  6 10  2  0
  7 11  1  0
  7 12  1  0
 11 13  1  0
 13 14  1  0
 14 15  1  1
 12 16  1  0
 14 16  1  0
 16 17  1  1
 18 17  1  6
 18 19  1  0
 19 20  1  0
 20 21  1  0
 18 22  1  0
 21 22  1  0
M  END
$$$$
75
     RDKit          3D

 22 23  0  0  0  0  0  0  0  0999 V2000
   62.6946   13.2798   34.8710 C   0  0  0  0  0  0  0  0  0  0  0  0
   61.7593   12.7551   34.2011 C   0  0  0  0  0  0  0  0  0  0  0  0
   60.7203   13.6125   33.6726 C   0  0  0  0  0  0  0  0  0  0  0  0
   60.8340   14.8854   34.2105 C   0  0  0  0  0  0  0  0  0  0  0  0
   61.7489   15.3768   35.0665 C   0  0  0  0  0  0  0  0  0  0  0  0
   62.7383   14.4793   35.4632 C   0  0  0  0  0  0  0  0  0  0  0  0
   59.7499   15.8176   33.8016 C   0  0  0  0  0  0  0  0  0  0  0  0
   59.4660   16.9183   34.5180 O   0  0  0  0  0  0  0  0  0  0  0  0
   59.0172   15.7562   32.6763 N   0  0  0  0  0  0  0  0  0  0  0  0
   57.8690   16.5670   32.3563 C   0  0  1  0  0  0  0  0  0  0  0  0
   57.6912   16.7163   30.9845 C   0  0  0  0  0  0  0  0  0  0  0  0
   57.0162   17.0687   33.2588 O   0  0  0  0  0  0  0  0  0  0  0  0
   58.0742   16.1523   29.9757 O   0  0  0  0  0  0  0  0  0  0  0  0
   56.6802   17.7442   30.6898 N   0  0  0  0  0  0  0  0  0  0  0  0
   56.5784   18.5334   29.5398 C   0  0  1  0  0  0  0  0  0  0  0  0
   56.2834   17.9607   32.4744 S   0  0  0  0  0  0  0  0  0  0  0  0
   55.2276   18.8317   29.5845 O   0  0  0  0  0  0  0  0  0  0  0  0
   54.6724   20.0154   29.8861 C   0  0  0  0  0  0  0  0  0  0  0  0
   57.7149   19.3994   29.4501 C   0  0  0  0  0  0  0  0  0  0  0  0
   58.4848   19.5331   30.7704 O   0  0  0  0  0  0  0  0  0  0  0  0
   56.5722   19.1085   33.2394 O   0  0  0  0  0  0  0  0  0  0  0  0
   54.8302   17.8776   32.1114 O   0  0  0  0  0  0  0  0  0  0  0  0
  1  2  1  0
  2  3  1  0
  3  4  1  0
  4  5  1  0
  1  6  1  0
  5  6  1  0
  4  7  1  0
  7  8  2  0
  7  9  1  0
 10  9  1  6
 10 11  1  0
 10 12  1  0
 11 13  2  0
 11 14  1  0
 14 15  1  0
 12 16  1  0
 14 16  1  0
 15 17  1  0
 17 18  1  0
 15 19  1  1
 19 20  1  0
 16 21  1  0
 16 22  1  0
M  END
$$$$
76
     RDKit          3D

 22 24  0  0  0  0  0  0  0  0999 V2000
   56.0267   17.9876   33.9524 O   0  0  0  0  0  0  0  0  0  0  0  0
   56.9684   17.9993   33.0146 C   0  0  0  0  0  0  0  0  0  0  0  0
   56.7467   17.2623   31.7573 N   0  0  0  0  0  0  0  0  0  0  0  0
   58.2935   18.3560   33.1509 C   0  0  1  0  0  0  0  0  0  0  0  0
   57.7296   17.1567   30.7770 C   0  0  1  0  0  0  0  0  0  0  0  0
   55.5056   16.6538   31.4677 C   0  0  0  0  0  0  0  0  0  0  0  0
   54.6862   17.2332   30.5532 C   0  0  1  0  0  0  0  0  0  0  0  0
   58.8362   18.2188   31.0271 C   0  0  2  0  0  0  0  0  0  0  0  0
   58.3736   15.9568   30.5456 O   0  0  0  0  0  0  0  0  0  0  0  0
   58.8939   19.0502   32.0617 N   0  0  0  0  0  0  0  0  0  0  0  0
   60.1697   19.6889   32.4512 C   0  0  0  0  0  0  0  0  0  0  0  0
   60.6521   19.3333   33.5513 O   0  0  0  0  0  0  0  0  0  0  0  0
   59.9885   19.1542   34.4714 C   0  0  0  0  0  0  0  0  0  0  0  0
   58.9569   18.9165   29.6253 O   0  0  0  0  0  0  0  0  0  0  0  0
   55.0669   15.6272   32.0375 O   0  0  0  0  0  0  0  0  0  0  0  0
   58.5902   18.9416   34.3859 O   0  0  0  0  0  0  0  0  0  0  0  0
   54.8833   18.4426   29.9955 C   0  0  0  0  0  0  0  0  0  0  0  0
   53.5707   16.3806   29.9851 C   0  0  2  0  0  0  0  0  0  0  0  0
   53.9737   19.0259   29.0325 C   0  0  0  0  0  0  0  0  0  0  0  0
   53.3760   14.9696   30.3824 O   0  0  0  0  0  0  0  0  0  0  0  0
   52.8249   16.8015   28.8951 C   0  0  0  0  0  0  0  0  0  0  0  0
   52.9990   18.0400   28.4706 C   0  0  0  0  0  0  0  0  0  0  0  0
  1  2  2  0
  2  3  1  0
  2  4  1  0
  3  5  1  0
  3  6  1  0
  7  6  1  6
  5  8  1  0
  5  9  1  1
  4 10  1  0
  8 10  1  0
 10 11  1  0
 11 12  1  0
 12 13  1  0
  8 14  1  6
  6 15  2  0
  4 16  1  1
 13 16  1  0
  7 17  1  0
  7 18  1  0
 17 19  1  0
 18 20  1  6
 18 21  1  0
 19 22  1  0
 21 22  1  0
M  END
$$$$
77
     RDKit          3D

 22 25  0  0  0  0  0  0  0  0999 V2000
   60.8156   12.4758   33.1898 C   0  0  0  0  0  0  0  0  0  0  0  0
   60.0189   13.5884   32.9009 C   0  0  0  0  0  0  0  0  0  0  0  0
   60.1957   14.6976   33.6170 C   0  0  0  0  0  0  0  0  0  0  0  0
   61.3957   12.4905   34.5469 C   0  0  0  0  0  0  0  0  0  0  0  0
   61.4960   13.6348   35.3286 C   0  0  0  0  0  0  0  0  0  0  0  0
   59.5058   15.9483   33.1344 N   0  0  0  0  0  0  0  0  0  0  0  0
   60.8393   14.8400   34.8165 C   0  0  0  0  0  0  0  0  0  0  0  0
   58.2314   15.9893   32.7324 C   0  0  0  0  0  0  0  0  0  0  0  0
   57.7461   17.3968   32.4131 C   0  0  0  0  0  0  0  0  0  0  0  0
   58.7419   18.3894   32.3809 C   0  0  0  0  0  0  0  0  0  0  0  0
   56.3091   17.7129   32.1807 C   0  0  2  0  0  0  0  0  0  0  0  0
   55.5192   16.6782   31.8764 O   0  0  0  0  0  0  0  0  0  0  0  0
   54.9009   16.5262   30.5792 C   0  0  1  0  0  0  0  0  0  0  0  0
   60.4744   16.7990   32.8361 C   0  0  0  0  0  0  0  0  0  0  0  0
   58.3125   19.7481   32.1255 C   0  0  0  0  0  0  0  0  0  0  0  0
   56.1282   18.8561   31.2528 C   0  0  2  0  0  0  0  0  0  0  0  0
   54.7208   17.6724   29.9005 C   0  0  0  0  0  0  0  0  0  0  0  0
   60.0929   18.0749   32.6082 N   0  0  0  0  0  0  0  0  0  0  0  0
   55.4765   15.3897   29.8528 C   0  0  0  0  0  0  0  0  0  0  0  0
   55.0258   15.2439   28.5493 C   0  0  0  0  0  0  0  0  0  0  0  0
   56.8817   20.0298   31.7833 C   0  0  0  0  0  0  0  0  0  0  0  0
   55.1288   18.9436   30.4342 C   0  0  0  0  0  0  0  0  0  0  0  0
  1  2  1  0
  2  3  1  0
  1  4  1  0
  4  5  1  0
  3  6  1  0
  3  7  1  0
  5  7  1  0
  6  8  1  0
  8  9  1  0
  9 10  1  0
  9 11  1  0
 11 12  1  6
 12 13  1  0
  6 14  1  0
 10 15  1  0
 11 16  1  0
 13 17  1  0
 10 18  1  0
 14 18  1  0
 13 19  1  6
 19 20  1  0
 15 21  1  0
 16 21  1  1
 16 22  1  0
 17 22  1  0
M  END
$$$$
78
     RDKit          3D

 22 24  0  0  0  0  0  0  0  0999 V2000
   60.8156   12.4758   33.1898 C   0  0  0  0  0  0  0  0  0  0  0  0
   60.0189   13.5884   32.9009 C   0  0  0  0  0  0  0  0  0  0  0  0
   60.1957   14.6976   33.6170 C   0  0  1  0  0  0  0  0  0  0  0  0
   61.4538   12.4004   34.4455 C   0  0  0  0  0  0  0  0  0  0  0  0
   59.5512   15.9933   33.2463 C   0  0  0  0  0  0  0  0  0  0  0  0
   60.9421   14.7461   34.8227 C   0  0  0  0  0  0  0  0  0  0  0  0
   61.6274   13.6207   35.2309 C   0  0  1  0  0  0  0  0  0  0  0  0
   62.4196   13.6742   36.4760 C   0  0  0  0  0  0  0  0  0  0  0  0
   59.9337   17.2031   33.6684 O   0  0  0  0  0  0  0  0  0  0  0  0
   58.4479   16.0551   32.4387 C   0  0  0  0  0  0  0  0  0  0  0  0
   57.9684   17.4350   32.2070 C   0  0  1  0  0  0  0  0  0  0  0  0
   59.2430   18.2522   33.0359 C   0  0  1  0  0  0  0  0  0  0  0  0
   57.9174   17.8121   30.8500 C   0  0  1  0  0  0  0  0  0  0  0  0
   59.2903   19.5814   33.1981 C   0  0  0  0  0  0  0  0  0  0  0  0
   56.5540   17.5740   32.9858 C   0  0  0  0  0  0  0  0  0  0  0  0
   58.8592   17.4196   30.0171 N   0  0  0  0  0  0  0  0  0  0  0  0
   58.5563   17.7565   28.6642 N   0  0  0  0  0  0  0  0  0  0  0  0
   57.3116   18.2535   28.7026 N   0  0  0  0  0  0  0  0  0  0  0  0
   56.9744   18.3734   30.0473 C   0  0  0  0  0  0  0  0  0  0  0  0
   60.5253   19.9409   33.6521 C   0  0  0  0  0  0  0  0  0  0  0  0
   61.3786   20.3185   32.6479 C   0  0  0  0  0  0  0  0  0  0  0  0
   60.5250   21.1888   34.5442 C   0  0  0  0  0  0  0  0  0  0  0  0
  1  2  1  0
  2  3  1  0
  1  4  1  0
  3  5  1  1
  3  6  1  0
  4  7  1  0
  6  7  1  0
  7  8  1  1
  5  9  1  0
  5 10  1  0
 10 11  1  0
  9 12  1  0
 11 12  1  0
 11 13  1  0
 12 14  1  1
 11 15  1  1
 13 16  1  0
 16 17  1  0
 17 18  1  0
 13 19  1  6
 18 19  1  0
 14 20  1  0
 20 21  1  0
 20 22  1  0
M  END
$$$$
79
     RDKit          3D

 22 23  0  0  0  0  0  0  0  0999 V2000
   58.8377   18.2583   29.8943 N   0  0  0  0  0  0  0  0  0  0  0  0
   57.6941   18.7862   30.0705 C   0  0  1  0  0  0  0  0  0  0  0  0
   57.7231   20.0004   30.5182 C   0  0  0  0  0  0  0  0  0  0  0  0
   56.6477   20.7086   30.7242 C   0  0  0  0  0  0  0  0  0  0  0  0
   56.6085   18.3270   29.3131 N   0  0  0  0  0  0  0  0  0  0  0  0
   56.5887   16.9822   28.8925 C   0  0  0  0  0  0  0  0  0  0  0  0
   55.4623   19.1060   29.2040 C   0  0  0  0  0  0  0  0  0  0  0  0
   55.4578   20.2983   29.9282 N   0  0  0  0  0  0  0  0  0  0  0  0
   59.7882   18.2413   30.9830 C   0  0  0  0  0  0  0  0  0  0  0  0
   59.7974   17.0116   31.6932 N   0  0  0  0  0  0  0  0  0  0  0  0
   55.1606   16.4737   28.7436 C   0  0  0  0  0  0  0  0  0  0  0  0
   60.2265   16.8911   32.9927 C   0  0  2  0  0  0  0  0  0  0  0  0
   60.2633   15.5721   33.5051 C   0  0  2  0  0  0  0  0  0  0  0  0
   59.1229   17.6117   33.8524 O   0  0  0  0  0  0  0  0  0  0  0  0
   54.7927   15.6577   29.9422 C   0  0  0  0  0  0  0  0  0  0  0  0
   53.6528   15.2623   30.0692 O   0  0  0  0  0  0  0  0  0  0  0  0
   59.7055   14.5744   32.9093 O   0  0  0  0  0  0  0  0  0  0  0  0
   59.8299   15.4732   34.9443 C   0  0  1  0  0  0  0  0  0  0  0  0
   60.3076   13.3100   32.6718 C   0  0  0  0  0  0  0  0  0  0  0  0
   55.5198   15.8534   31.1006 N   0  0  0  0  0  0  0  0  0  0  0  0
   60.4785   14.4363   35.7515 O   0  0  0  0  0  0  0  0  0  0  0  0
   58.9671   16.6239   34.9895 C   0  0  0  0  0  0  0  0  0  0  0  0
  2  1  1  6
  2  3  1  0
  3  4  1  0
  2  5  1  0
  5  6  1  0
  5  7  1  0
  4  8  1  0
  7  8  1  0
  1  9  1  0
  9 10  1  0
  6 11  1  0
 12 10  1  6
 12 13  1  0
 12 14  1  0
 11 15  1  0
 15 16  2  0
 13 17  1  6
 13 18  1  0
 17 19  1  0
 15 20  1  0
 18 21  1  1
 14 22  1  0
 18 22  1  0
M  END
$$$$
8
     RDKit          3D

 15 15  0  0  0  0  0  0  0  0999 V2000
   62.1862   12.6853   34.4132 C   0  0  0  0  0  0  0  0  0  0  0  0
   61.0478   12.8507   33.7557 C   0  0  0  0  0  0  0  0  0  0  0  0
   62.1999   13.5820   35.5039 C   0  0  1  0  0  0  0  0  0  0  0  0
   63.2307   13.6335   36.4420 N   0  0  0  0  0  0  0  0  0  0  0  0
   61.3818   14.7482   35.4422 C   0  0  0  0  0  0  0  0  0  0  0  0
   60.4782   14.6416   34.4811 C   0  0  2  0  0  0  0  0  0  0  0  0
   60.2759   13.8421   33.5622 C   0  0  0  0  0  0  0  0  0  0  0  0
   59.5091   16.0402   34.5251 C   0  0  0  0  0  0  0  0  0  0  0  0
   59.3624   16.5632   33.1495 N   0  0  0  0  0  0  0  0  0  0  0  0
   58.2727   17.6152   33.0807 C   0  0  0  0  0  0  0  0  0  0  0  0
   57.3970   17.7588   33.8319 O   0  0  0  0  0  0  0  0  0  0  0  0
   58.5801   18.6275   31.9725 C   0  0  1  0  0  0  0  0  0  0  0  0
   58.3088   19.9095   32.2922 O   0  0  0  0  0  0  0  0  0  0  0  0
   60.0344   18.5562   31.5603 C   0  0  0  0  0  0  0  0  0  0  0  0
   60.1051   17.9109   30.3576 O   0  0  0  0  0  0  0  0  0  0  0  0
  1  2  1  0
  1  3  1  0
  3  4  1  6
  3  5  1  0
  5  6  1  0
  2  7  1  0
  6  7  1  0
  6  8  1  6
  8  9  1  0
  9 10  1  0
 10 11  2  0
 10 12  1  0
 12 13  1  1
 12 14  1  0
 14 15  1  0
M  END
$$$$
80
     RDKit          3D

 22 23  0  0  0  0  0  0  0  0999 V2000
   58.8377   18.2583   29.8943 N   0  0  0  0  0  0  0  0  0  0  0  0
   57.6941   18.7862   30.0705 C   0  0  1  0  0  0  0  0  0  0  0  0
   57.7231   20.0004   30.5182 C   0  0  0  0  0  0  0  0  0  0  0  0
   56.6477   20.7086   30.7242 C   0  0  0  0  0  0  0  0  0  0  0  0
   56.6085   18.3270   29.3131 N   0  0  0  0  0  0  0  0  0  0  0  0
   56.5887   16.9822   28.8925 C   0  0  0  0  0  0  0  0  0  0  0  0
   55.4623   19.1060   29.2040 C   0  0  0  0  0  0  0  0  0  0  0  0
   55.4578   20.2983   29.9282 N   0  0  0  0  0  0  0  0  0  0  0  0
   59.7882   18.2413   30.9830 C   0  0  0  0  0  0  0  0  0  0  0  0
   59.7974   17.0116   31.6932 N   0  0  0  0  0  0  0  0  0  0  0  0
   55.1606   16.4737   28.7436 C   0  0  0  0  0  0  0  0  0  0  0  0
   60.2265   16.8911   32.9927 C   0  0  0  0  0  0  0  0  0  0  0  0
   60.2633   15.5721   33.5051 C   0  0  0  0  0  0  0  0  0  0  0  0
   60.0462   14.4671   32.7431 C   0  0  0  0  0  0  0  0  0  0  0  0
   54.8097   15.6192   29.9095 C   0  0  0  0  0  0  0  0  0  0  0  0
   60.4209   13.2213   33.2129 C   0  0  0  0  0  0  0  0  0  0  0  0
   61.1092   13.1167   34.3889 C   0  0  0  0  0  0  0  0  0  0  0  0
   60.9613   15.3022   34.6598 C   0  0  0  0  0  0  0  0  0  0  0  0
   60.4239   17.9684   33.6763 O   0  0  0  0  0  0  0  0  0  0  0  0
   61.3812   14.1317   35.1224 C   0  0  0  0  0  0  0  0  0  0  0  0
   53.6313   14.8132   29.7185 C   0  0  0  0  0  0  0  0  0  0  0  0
   54.6282   16.4352   31.1908 C   0  0  0  0  0  0  0  0  0  0  0  0
  2  1  1  6
  2  3  1  0
  3  4  1  0
  2  5  1  0
  5  6  1  0
  5  7  1  0
  4  8  1  0
  7  8  1  0
  1  9  1  0
  9 10  1  0
  6 11  1  0
 10 12  1  0
 12 13  1  0
 13 14  1  0
 11 15  1  0
 14 16  1  0
 16 17  1  0
 13 18  1  0
 12 19  2  0
 17 20  1  0
 18 20  1  0
 15 21  1  0
 15 22  1  0
M  END
$$$$
81
     RDKit          3D

 22 24  0  0  0  0  0  0  0  0999 V2000
   56.0267   17.9876   33.9524 O   0  0  0  0  0  0  0  0  0  0  0  0
   56.9684   17.9993   33.0146 C   0  0  0  0  0  0  0  0  0  0  0  0
   56.7467   17.2623   31.7573 N   0  0  0  0  0  0  0  0  0  0  0  0
   58.2935   18.3560   33.1509 C   0  0  1  0  0  0  0  0  0  0  0  0
   57.7296   17.1567   30.7770 C   0  0  1  0  0  0  0  0  0  0  0  0
   55.5056   16.6538   31.4677 C   0  0  0  0  0  0  0  0  0  0  0  0
   54.6862   17.2332   30.5532 C   0  0  1  0  0  0  0  0  0  0  0  0
   58.8362   18.2188   31.0271 C   0  0  2  0  0  0  0  0  0  0  0  0
   58.3736   15.9568   30.5456 O   0  0  0  0  0  0  0  0  0  0  0  0
   58.8939   19.0502   32.0617 N   0  0  0  0  0  0  0  0  0  0  0  0
   60.1697   19.6889   32.4512 C   0  0  0  0  0  0  0  0  0  0  0  0
   60.6521   19.3333   33.5513 O   0  0  0  0  0  0  0  0  0  0  0  0
   59.9885   19.1542   34.4714 C   0  0  0  0  0  0  0  0  0  0  0  0
   58.9569   18.9165   29.6253 O   0  0  0  0  0  0  0  0  0  0  0  0
   55.0669   15.6272   32.0375 O   0  0  0  0  0  0  0  0  0  0  0  0
   58.5902   18.9416   34.3859 O   0  0  0  0  0  0  0  0  0  0  0  0
   54.8833   18.4426   29.9955 C   0  0  0  0  0  0  0  0  0  0  0  0
   53.5707   16.3806   29.9851 C   0  0  0  0  0  0  0  0  0  0  0  0
   53.9737   19.0259   29.0325 C   0  0  1  0  0  0  0  0  0  0  0  0
   54.1196   20.2738   28.4918 C   0  0  0  0  0  0  0  0  0  0  0  0
   52.9142   18.1315   28.5746 C   0  0  0  0  0  0  0  0  0  0  0  0
   52.7653   16.8009   29.0131 C   0  0  0  0  0  0  0  0  0  0  0  0
  1  2  2  0
  2  3  1  0
  2  4  1  0
  3  5  1  0
  3  6  1  0
  7  6  1  6
  5  8  1  0
  5  9  1  1
  4 10  1  0
  8 10  1  0
 10 11  1  0
 11 12  1  0
 12 13  1  0
  8 14  1  6
  6 15  2  0
  4 16  1  1
 13 16  1  0
  7 17  1  0
  7 18  1  0
 17 19  1  0
 19 20  1  6
 19 21  1  0
 18 22  1  0
 21 22  1  0
M  END
$$$$
82
     RDKit          3D

 22 23  0  0  0  0  0  0  0  0999 V2000
   60.4361   12.9922   32.7047 C   0  0  0  0  0  0  0  0  0  0  0  0
   61.1585   12.9365   33.8689 C   0  0  0  0  0  0  0  0  0  0  0  0
   61.1462   13.7864   34.7412 C   0  0  1  0  0  0  0  0  0  0  0  0
   61.9402   13.7124   36.0073 C   0  0  0  0  0  0  0  0  0  0  0  0
   63.1433   13.2743   35.9863 O   0  0  0  0  0  0  0  0  0  0  0  0
   59.5413   14.0917   32.5025 C   0  0  0  0  0  0  0  0  0  0  0  0
   59.6413   15.1344   33.3848 C   0  0  2  0  0  0  0  0  0  0  0  0
   60.4354   15.0494   34.6507 C   0  0  0  0  0  0  0  0  0  0  0  0
   58.8823   16.4351   33.1522 C   0  0  2  0  0  0  0  0  0  0  0  0
   61.3458   13.6234   37.2484 O   0  0  0  0  0  0  0  0  0  0  0  0
   58.1321   16.4780   32.1257 O   0  0  0  0  0  0  0  0  0  0  0  0
   59.2144   17.5620   33.8247 O   0  0  0  0  0  0  0  0  0  0  0  0
   59.2018   18.7857   33.0692 C   0  0  2  0  0  0  0  0  0  0  0  0
   59.1307   19.8844   34.0953 C   0  0  0  0  0  0  0  0  0  0  0  0
   57.9923   18.6955   32.1432 C   0  0  1  0  0  0  0  0  0  0  0  0
   59.9396   20.8871   33.5065 O   0  0  0  0  0  0  0  0  0  0  0  0
   57.5063   17.6485   31.7136 C   0  0  2  0  0  0  0  0  0  0  0  0
   56.0874   17.2026   31.7223 C   0  0  0  0  0  0  0  0  0  0  0  0
   55.7366   16.0026   31.7114 O   0  0  0  0  0  0  0  0  0  0  0  0
   57.0907   19.6893   32.9070 O   0  0  0  0  0  0  0  0  0  0  0  0
   54.6436   15.3348   30.7915 C   0  0  0  0  0  0  0  0  0  0  0  0
   55.2177   15.3006   29.4612 C   0  0  0  0  0  0  0  0  0  0  0  0
  1  2  1  0
  2  3  1  0
  3  4  1  6
  4  5  1  0
  1  6  1  0
  7  6  1  1
  3  8  1  0
  7  8  1  0
  7  9  1  0
  4 10  2  0
  9 11  1  6
  9 12  1  0
 12 13  1  0
 13 14  1  1
 13 15  1  0
 14 16  1  0
 11 17  1  0
 15 17  1  0
 17 18  1  1
 18 19  1  0
 15 20  1  1
 19 21  1  0
 21 22  1  0
M  END
$$$$
83
     RDKit          3D

 22 24  0  0  0  0  0  0  0  0999 V2000
   61.1673   12.3367   33.6847 C   0  0  0  0  0  0  0  0  0  0  0  0
   61.5392   12.8882   34.9135 C   0  0  0  0  0  0  0  0  0  0  0  0
   60.9926   14.0715   35.3739 C   0  0  1  0  0  0  0  0  0  0  0  0
   60.3012   13.1023   32.8208 C   0  0  0  0  0  0  0  0  0  0  0  0
   61.4451   14.6798   36.5706 O   0  0  0  0  0  0  0  0  0  0  0  0
   60.0818   14.8443   34.5123 C   0  0  1  0  0  0  0  0  0  0  0  0
   62.5651   15.5694   36.4045 C   0  0  0  0  0  0  0  0  0  0  0  0
   59.5805   16.0439   34.9146 N   0  0  0  0  0  0  0  0  0  0  0  0
   59.8277   14.3277   33.2642 C   0  0  2  0  0  0  0  0  0  0  0  0
   58.9827   15.2356   32.6592 N   0  0  0  0  0  0  0  0  0  0  0  0
   58.7893   16.1970   33.6911 C   0  0  2  0  0  0  0  0  0  0  0  0
   58.0058   17.3940   33.5685 C   0  0  0  0  0  0  0  0  0  0  0  0
   58.4075   18.5608   33.6514 O   0  0  0  0  0  0  0  0  0  0  0  0
   56.7791   17.2117   32.9939 N   0  0  0  0  0  0  0  0  0  0  0  0
   56.3400   16.3575   31.9703 C   0  0  2  0  0  0  0  0  0  0  0  0
   56.6361   16.7157   30.6108 C   0  0  2  0  0  0  0  0  0  0  0  0
   55.6828   16.5026   29.6988 C   0  0  0  0  0  0  0  0  0  0  0  0
   54.4438   16.1789   30.2408 C   0  0  0  0  0  0  0  0  0  0  0  0
   58.0452   16.7485   30.0709 C   0  0  0  0  0  0  0  0  0  0  0  0
   55.2262   15.6650   32.2896 C   0  0  0  0  0  0  0  0  0  0  0  0
   54.3308   15.4325   31.1959 C   0  0  0  0  0  0  0  0  0  0  0  0
   58.2413   18.0744   29.5207 N   0  0  0  0  0  0  0  0  0  0  0  0
  1  2  1  0
  2  3  1  0
  1  4  1  0
  3  5  1  6
  3  6  1  0
  5  7  1  0
  6  8  1  6
  9  4  1  1
  6  9  1  0
  9 10  1  0
  8 11  1  0
 10 11  1  0
 11 12  1  6
 12 13  2  0
 12 14  1  0
 15 14  1  1
 15 16  1  0
 16 17  1  0
 17 18  1  0
 16 19  1  6
 15 20  1  0
 18 21  1  0
 20 21  1  0
 19 22  1  0
M  END
$$$$
84
     RDKit          3D

 22 25  0  0  0  0  0  0  0  0999 V2000
   56.4766   17.7436   34.0590 O   0  0  0  0  0  0  0  0  0  0  0  0
   57.1822   17.7567   33.1109 C   0  0  0  0  0  0  0  0  0  0  0  0
   57.1055   17.0193   31.9905 N   0  0  0  0  0  0  0  0  0  0  0  0
   58.0250   17.0666   30.8813 C   0  0  2  0  0  0  0  0  0  0  0  0
   56.0931   15.9354   31.7874 C   0  0  0  0  0  0  0  0  0  0  0  0
   57.4208   16.9117   29.5904 C   0  0  0  0  0  0  0  0  0  0  0  0
   59.2693   16.2785   30.8709 C   0  0  0  0  0  0  0  0  0  0  0  0
   55.1372   16.1624   30.7193 C   0  0  0  0  0  0  0  0  0  0  0  0
   59.9570   16.1916   32.2108 C   0  0  2  0  0  0  0  0  0  0  0  0
   58.3415   18.8065   32.9884 C   0  0  0  0  0  0  0  0  0  0  0  0
   60.0110   14.8825   32.6984 C   0  0  0  0  0  0  0  0  0  0  0  0
   56.0597   16.4514   29.4959 C   0  0  0  0  0  0  0  0  0  0  0  0
   60.3219   14.4639   33.7913 C   0  0  2  0  0  0  0  0  0  0  0  0
   54.3223   17.3896   31.0057 C   0  0  0  0  0  0  0  0  0  0  0  0
   60.8081   15.3563   34.8129 C   0  0  0  0  0  0  0  0  0  0  0  0
   61.3977   14.7611   36.0808 N   0  0  0  0  0  0  0  0  0  0  0  0
   60.7847   16.7880   34.7142 C   0  0  0  0  0  0  0  0  0  0  0  0
   60.4258   17.2183   33.2466 C   0  0  2  0  0  0  0  0  0  0  0  0
   60.6175   13.0676   34.4910 C   0  0  0  0  0  0  0  0  0  0  0  0
   61.2766   13.3616   35.6805 C   0  0  0  0  0  0  0  0  0  0  0  0
   59.9942   18.5980   33.2677 C   0  0  0  0  0  0  0  0  0  0  0  0
   54.3797   14.8754   30.4851 C   0  0  0  0  0  0  0  0  0  0  0  0
  1  2  2  0
  2  3  1  0
  3  4  1  0
  3  5  1  0
  4  6  1  6
  4  7  1  0
  5  8  1  0
  9  7  1  1
  2 10  1  0
  9 11  1  0
  6 12  1  0
  8 12  1  0
 13 11  1  6
  8 14  1  0
 13 15  1  0
 15 16  1  0
 15 17  1  0
  9 18  1  0
 18 17  1  1
 13 19  1  0
 16 20  1  0
 19 20  1  0
 10 21  1  0
 18 21  1  0
  8 22  1  0
M  END
$$$$
85
     RDKit          3D

 22 24  0  0  0  0  0  0  0  0999 V2000
   62.6946   13.2798   34.8710 C   0  0  0  0  0  0  0  0  0  0  0  0
   62.4127   14.5040   35.3114 C   0  0  0  0  0  0  0  0  0  0  0  0
   61.4928   12.7443   34.4201 C   0  0  0  0  0  0  0  0  0  0  0  0
   61.2560   15.2053   35.0236 C   0  0  0  0  0  0  0  0  0  0  0  0
   60.5179   13.5794   33.9746 C   0  0  0  0  0  0  0  0  0  0  0  0
   60.3291   14.7468   34.3065 C   0  0  0  0  0  0  0  0  0  0  0  0
   59.2707   15.5188   33.8649 N   0  0  0  0  0  0  0  0  0  0  0  0
   58.7363   15.5242   32.5003 C   0  0  0  0  0  0  0  0  0  0  0  0
   58.4051   16.1564   34.6705 C   0  0  0  0  0  0  0  0  0  0  0  0
   59.4307   15.1231   31.5190 O   0  0  0  0  0  0  0  0  0  0  0  0
   57.4429   16.9779   33.8921 N   0  0  0  0  0  0  0  0  0  0  0  0
   57.5519   16.3287   32.5003 C   0  0  1  0  0  0  0  0  0  0  0  0
   56.8376   16.7185   31.3320 C   0  0  2  0  0  0  0  0  0  0  0  0
   55.8307   15.9264   30.9754 C   0  0  0  0  0  0  0  0  0  0  0  0
   57.6538   17.1511   30.1567 C   0  0  2  0  0  0  0  0  0  0  0  0
   55.0512   16.1810   29.7986 C   0  0  0  0  0  0  0  0  0  0  0  0
   58.4761   18.4068   30.3907 C   0  0  0  0  0  0  0  0  0  0  0  0
   56.7710   17.2490   29.0234 N   0  0  0  0  0  0  0  0  0  0  0  0
   57.7875   19.5289   30.2918 O   0  0  0  0  0  0  0  0  0  0  0  0
   59.7515   18.3477   30.3653 N   0  0  0  0  0  0  0  0  0  0  0  0
   60.5441   18.9658   31.4677 C   0  0  0  0  0  0  0  0  0  0  0  0
   55.7764   16.5333   28.6971 C   0  0  0  0  0  0  0  0  0  0  0  0
  1  2  1  0
  1  3  1  0
  2  4  1  0
  3  5  1  0
  4  6  1  0
  5  6  1  0
  6  7  1  0
  7  8  1  0
  7  9  1  0
  8 10  2  0
  9 11  1  0
  8 12  1  0
 12 11  1  6
 12 13  1  0
 13 14  1  6
 13 15  1  0
 14 16  1  0
 15 17  1  1
 15 18  1  0
 17 19  2  0
 17 20  1  0
 20 21  1  0
 16 22  1  0
 18 22  1  0
M  END
$$$$
86
     RDKit          3D

 23 27  0  0  0  0  0  0  0  0999 V2000
   58.4933   17.8007   29.2392 N   0  0  0  0  0  0  0  0  0  0  0  0
   57.7876   17.6622   30.1266 C   0  0  2  0  0  0  0  0  0  0  0  0
   57.6854   18.8976   31.0396 C   0  0  1  0  0  0  0  0  0  0  0  0
   58.2038   16.4912   30.9867 C   0  0  1  0  0  0  0  0  0  0  0  0
   59.5199   16.7391   31.5655 N   0  0  0  0  0  0  0  0  0  0  0  0
   58.8664   19.1481   31.8737 C   0  0  1  0  0  0  0  0  0  0  0  0
   59.3930   17.8810   32.5860 C   0  0  1  0  0  0  0  0  0  0  0  0
   57.4330   20.2192   30.5909 C   0  0  0  0  0  0  0  0  0  0  0  0
   58.4439   17.2326   33.5854 C   0  0  0  0  0  0  0  0  0  0  0  0
   60.0328   19.7018   31.1750 O   0  0  0  0  0  0  0  0  0  0  0  0
   59.1087   16.9043   34.5696 O   0  0  0  0  0  0  0  0  0  0  0  0
   56.2157   20.7961   30.8935 C   0  0  0  0  0  0  0  0  0  0  0  0
   55.3626   20.0340   31.5354 C   0  0  0  0  0  0  0  0  0  0  0  0
   59.8967   15.6380   34.5048 C   0  0  0  0  0  0  0  0  0  0  0  0
   55.6395   18.7430   31.9713 C   0  0  0  0  0  0  0  0  0  0  0  0
   56.6450   18.2890   31.9933 C   0  0  2  0  0  0  0  0  0  0  0  0
   60.6102   15.3147   35.6518 C   0  0  0  0  0  0  0  0  0  0  0  0
   61.1969   13.9861   35.6359 C   0  0  0  0  0  0  0  0  0  0  0  0
   57.1262   17.2888   32.9404 C   0  0  0  0  0  0  0  0  0  0  0  0
   60.0237   14.7824   33.4089 C   0  0  0  0  0  0  0  0  0  0  0  0
   56.9251   16.0711   32.1119 C   0  0  0  0  0  0  0  0  0  0  0  0
   60.6563   13.5430   33.4402 C   0  0  0  0  0  0  0  0  0  0  0  0
   61.2885   13.2620   34.6616 C   0  0  0  0  0  0  0  0  0  0  0  0
  2  1  1  6
  2  3  1  0
  2  4  1  0
  4  5  1  0
  3  6  1  0
  7  5  1  6
  6  7  1  0
  3  8  1  6
  7  9  1  0
  6 10  1  6
  9 11  1  0
  8 12  1  0
 12 13  1  0
 11 14  1  0
 13 15  1  0
  3 16  1  0
 16 15  1  1
 14 17  1  0
 17 18  1  0
  9 19  2  0
 16 19  1  0
 14 20  1  0
  4 21  1  1
 19 21  1  0
 20 22  1  0
 18 23  1  0
 22 23  1  0
M  END
$$$$
87
     RDKit          3D

 23 26  0  0  0  0  0  0  0  0999 V2000
   56.4766   17.7436   34.0590 O   0  0  0  0  0  0  0  0  0  0  0  0
   57.1822   17.7567   33.1109 C   0  0  0  0  0  0  0  0  0  0  0  0
   57.1055   17.0193   31.9905 N   0  0  0  0  0  0  0  0  0  0  0  0
   58.0250   17.0666   30.8813 C   0  0  2  0  0  0  0  0  0  0  0  0
   56.0931   15.9354   31.7874 C   0  0  0  0  0  0  0  0  0  0  0  0
   57.4208   16.9117   29.5904 C   0  0  0  0  0  0  0  0  0  0  0  0
   59.2693   16.2785   30.8709 C   0  0  0  0  0  0  0  0  0  0  0  0
   55.1372   16.1624   30.7193 C   0  0  0  0  0  0  0  0  0  0  0  0
   59.9570   16.1916   32.2108 C   0  0  2  0  0  0  0  0  0  0  0  0
   58.3415   18.8065   32.9884 C   0  0  0  0  0  0  0  0  0  0  0  0
   60.0110   14.8825   32.6984 C   0  0  0  0  0  0  0  0  0  0  0  0
   56.0597   16.4514   29.4959 C   0  0  0  0  0  0  0  0  0  0  0  0
   60.3219   14.4639   33.7913 C   0  0  2  0  0  0  0  0  0  0  0  0
   54.3223   17.3896   31.0057 C   0  0  0  0  0  0  0  0  0  0  0  0
   60.8081   15.3563   34.8129 C   0  0  0  0  0  0  0  0  0  0  0  0
   61.3977   14.7611   36.0808 N   0  0  0  0  0  0  0  0  0  0  0  0
   60.7847   16.7880   34.7142 C   0  0  0  0  0  0  0  0  0  0  0  0
   60.4258   17.2183   33.2466 C   0  0  2  0  0  0  0  0  0  0  0  0
   60.6175   13.0676   34.4910 C   0  0  0  0  0  0  0  0  0  0  0  0
   61.2766   13.3616   35.6805 C   0  0  0  0  0  0  0  0  0  0  0  0
   59.6747   18.4730   33.5648 N   0  0  0  0  0  0  0  0  0  0  0  0
   60.2016   19.3349   34.6127 C   0  0  0  0  0  0  0  0  0  0  0  0
   54.4019   14.7922   30.4586 C   0  0  0  0  0  0  0  0  0  0  0  0
  1  2  2  0
  2  3  1  0
  3  4  1  0
  3  5  1  0
  4  6  1  6
  4  7  1  0
  5  8  1  0
  9  7  1  1
  2 10  1  0
  9 11  1  0
  6 12  1  0
  8 12  1  0
 13 11  1  6
  8 14  1  0
 13 15  1  0
 15 16  1  0
 15 17  1  0
  9 18  1  0
 18 17  1  1
 13 19  1  0
 16 20  1  0
 19 20  1  0
 10 21  1  0
 18 21  1  0
 21 22  1  0
  8 23  1  0
M  END
$$$$
88
     RDKit          3D

 23 25  0  0  0  0  0  0  0  0999 V2000
   62.6946   13.2798   34.8710 C   0  0  0  0  0  0  0  0  0  0  0  0
   62.4127   14.5040   35.3114 C   0  0  1  0  0  0  0  0  0  0  0  0
   63.1565   15.0470   36.2685 C   0  0  0  0  0  0  0  0  0  0  0  0
   62.0672   15.3941   34.1859 O   0  0  0  0  0  0  0  0  0  0  0  0
   61.7272   12.3025   34.4936 C   0  0  0  0  0  0  0  0  0  0  0  0
   63.9116   14.0739   37.0032 O   0  0  0  0  0  0  0  0  0  0  0  0
   60.7050   16.0089   34.1280 C   0  0  1  0  0  0  0  0  0  0  0  0
   60.4510   12.8506   34.3848 O   0  0  0  0  0  0  0  0  0  0  0  0
   60.6839   17.2690   33.9706 O   0  0  0  0  0  0  0  0  0  0  0  0
   59.5378   18.1105   33.7108 C   0  0  0  0  0  0  0  0  0  0  0  0
   60.2465   13.8912   33.3260 C   0  0  0  0  0  0  0  0  0  0  0  0
   59.9710   15.2679   33.0778 C   0  0  1  0  0  0  0  0  0  0  0  0
   58.5957   15.5607   33.1328 O   0  0  0  0  0  0  0  0  0  0  0  0
   58.6569   17.1567   32.6895 C   0  0  2  0  0  0  0  0  0  0  0  0
   58.5586   17.1614   31.3428 C   0  0  2  0  0  0  0  0  0  0  0  0
   58.8181   18.6230   30.8738 O   0  0  0  0  0  0  0  0  0  0  0  0
   57.6666   16.6739   30.3850 C   0  0  0  0  0  0  0  0  0  0  0  0
   57.3905   17.5537   29.4186 C   0  0  2  0  0  0  0  0  0  0  0  0
   58.0613   18.8989   29.8083 C   0  0  1  0  0  0  0  0  0  0  0  0
   57.1266   15.4320   30.5262 O   0  0  0  0  0  0  0  0  0  0  0  0
   56.0236   17.3654   29.1551 O   0  0  0  0  0  0  0  0  0  0  0  0
   56.7816   19.6887   30.1037 C   0  0  0  0  0  0  0  0  0  0  0  0
   57.1402   21.0600   30.5149 O   0  0  0  0  0  0  0  0  0  0  0  0
  1  2  1  0
  2  3  1  6
  2  4  1  0
  1  5  1  0
  3  6  1  0
  7  4  1  6
  5  8  1  0
  7  9  1  0
  9 10  1  0
  8 11  1  0
  7 12  1  0
 12 11  1  1
 12 13  1  0
 14 10  1  6
 13 14  1  0
 14 15  1  0
 15 16  1  1
 15 17  1  0
 17 18  1  0
 16 19  1  0
 18 19  1  0
 17 20  1  0
 18 21  1  1
 19 22  1  1
 22 23  1  0
M  END
$$$$
89
     RDKit          3D

 23 24  0  0  0  0  0  0  0  0999 V2000
   62.6946   13.2798   34.8710 C   0  0  0  0  0  0  0  0  0  0  0  0
   61.7593   12.7551   34.2011 C   0  0  0  0  0  0  0  0  0  0  0  0
   60.7203   13.6125   33.6726 C   0  0  0  0  0  0  0  0  0  0  0  0
   60.8340   14.8854   34.2105 C   0  0  0  0  0  0  0  0  0  0  0  0
   61.7489   15.3768   35.0665 C   0  0  0  0  0  0  0  0  0  0  0  0
   62.7383   14.4793   35.4632 C   0  0  0  0  0  0  0  0  0  0  0  0
   59.7499   15.8176   33.8016 C   0  0  0  0  0  0  0  0  0  0  0  0
   59.4660   16.9183   34.5180 O   0  0  0  0  0  0  0  0  0  0  0  0
   59.0172   15.7562   32.6763 N   0  0  0  0  0  0  0  0  0  0  0  0
   57.8690   16.5670   32.3563 C   0  0  1  0  0  0  0  0  0  0  0  0
   57.6912   16.7163   30.9845 C   0  0  0  0  0  0  0  0  0  0  0  0
   57.0162   17.0687   33.2588 O   0  0  0  0  0  0  0  0  0  0  0  0
   58.0742   16.1523   29.9757 O   0  0  0  0  0  0  0  0  0  0  0  0
   56.6802   17.7442   30.6898 N   0  0  0  0  0  0  0  0  0  0  0  0
   56.5784   18.5334   29.5398 C   0  0  1  0  0  0  0  0  0  0  0  0
   56.2834   17.9607   32.4744 S   0  0  0  0  0  0  0  0  0  0  0  0
   55.2276   18.8317   29.5845 O   0  0  0  0  0  0  0  0  0  0  0  0
   57.5371   19.5486   29.3929 C   0  0  1  0  0  0  0  0  0  0  0  0
   56.5287   19.2837   33.1643 O   0  0  0  0  0  0  0  0  0  0  0  0
   57.5925   20.4318   30.6775 C   0  0  0  0  0  0  0  0  0  0  0  0
   54.8059   17.6730   32.0389 O   0  0  0  0  0  0  0  0  0  0  0  0
   58.8566   18.7951   29.4198 O   0  0  0  0  0  0  0  0  0  0  0  0
   58.5901   20.1865   31.5579 O   0  0  0  0  0  0  0  0  0  0  0  0
  1  2  1  0
  2  3  1  0
  3  4  1  0
  4  5  1  0
  1  6  1  0
  5  6  1  0
  4  7  1  0
  7  8  2  0
  7  9  1  0
 10  9  1  6
 10 11  1  0
 10 12  1  0
 11 13  2  0
 11 14  1  0
 14 15  1  0
 12 16  1  0
 14 16  1  0
 15 17  1  1
 15 18  1  0
 16 19  1  0
 18 20  1  0
 16 21  1  0
 18 22  1  1
 20 23  1  0
M  END
$$$$
9
     RDKit          3D

 16 16  0  0  0  0  0  0  0  0999 V2000
   58.4933   17.8007   29.2392 N   0  0  0  0  0  0  0  0  0  0  0  0
   57.7876   17.6622   30.1266 C   0  0  2  0  0  0  0  0  0  0  0  0
   57.6854   18.8976   31.0396 C   0  0  0  0  0  0  0  0  0  0  0  0
   58.2038   16.4912   30.9867 C   0  0  2  0  0  0  0  0  0  0  0  0
   59.5199   16.7391   31.5655 N   0  0  0  0  0  0  0  0  0  0  0  0
   60.0202   15.7500   32.4278 C   0  0  1  0  0  0  0  0  0  0  0  0
   60.8717   16.0354   33.4583 C   0  0  0  0  0  0  0  0  0  0  0  0
   57.9707   15.2477   30.3757 O   0  0  0  0  0  0  0  0  0  0  0  0
   57.1087   18.7910   32.1675 O   0  0  0  0  0  0  0  0  0  0  0  0
   59.5979   14.4727   32.3207 C   0  0  0  0  0  0  0  0  0  0  0  0
   60.1668   13.4420   33.1619 C   0  0  0  0  0  0  0  0  0  0  0  0
   59.8159   12.0788   32.9813 F   0  0  0  0  0  0  0  0  0  0  0  0
   57.9559   20.0573   30.5679 O   0  0  0  0  0  0  0  0  0  0  0  0
   61.0242   13.7591   34.1802 C   0  0  1  0  0  0  0  0  0  0  0  0
   61.4305   15.1210   34.3690 C   0  0  0  0  0  0  0  0  0  0  0  0
   61.5778   12.7264   35.2538 C   0  0  0  0  0  0  0  0  0  0  0  0
  2  1  1  6
  2  3  1  0
  2  4  1  0
  4  5  1  0
  6  5  1  1
  6  7  1  0
  4  8  1  6
  3  9  1  0
  6 10  1  0
 10 11  1  0
 11 12  1  0
  3 13  2  0
 11 14  1  0
  7 15  1  0
 14 15  1  0
 14 16  1  1
M  END
$$$$
90
     RDKit          3D

 23 26  0  0  0  0  0  0  0  0999 V2000
   61.1673   12.3367   33.6847 C   0  0  0  0  0  0  0  0  0  0  0  0
   60.3417   13.1827   33.0586 C   0  0  0  0  0  0  0  0  0  0  0  0
   61.6132   12.8008   34.9250 C   0  0  0  0  0  0  0  0  0  0  0  0
   61.3032   14.0192   35.4953 C   0  0  1  0  0  0  0  0  0  0  0  0
   60.1803   14.5198   33.5076 C   0  0  2  0  0  0  0  0  0  0  0  0
   61.9751   14.3831   36.7395 N   0  0  0  0  0  0  0  0  0  0  0  0
   60.6681   14.8988   34.7442 C   0  0  0  0  0  0  0  0  0  0  0  0
   59.3669   15.5381   32.8373 C   0  0  2  0  0  0  0  0  0  0  0  0
   58.8522   15.3277   31.6374 O   0  0  0  0  0  0  0  0  0  0  0  0
   59.7991   16.9393   32.8458 C   0  0  2  0  0  0  0  0  0  0  0  0
   59.2704   17.6917   34.0129 O   0  0  0  0  0  0  0  0  0  0  0  0
   58.2043   18.5439   33.5104 C   0  0  0  0  0  0  0  0  0  0  0  0
   57.8497   16.2162   31.1321 C   0  0  2  0  0  0  0  0  0  0  0  0
   58.1411   17.5722   31.0376 C   0  0  2  0  0  0  0  0  0  0  0  0
   56.6197   15.9175   31.1893 O   0  0  0  0  0  0  0  0  0  0  0  0
   57.9399   18.3184   29.9036 C   0  0  0  0  0  0  0  0  0  0  0  0
   59.6442   17.7109   31.5901 C   0  0  1  0  0  0  0  0  0  0  0  0
   58.6486   17.8259   28.8212 O   0  0  0  0  0  0  0  0  0  0  0  0
   57.3191   18.2141   32.2273 C   0  0  1  0  0  0  0  0  0  0  0  0
   57.2780   19.3265   29.8169 O   0  0  0  0  0  0  0  0  0  0  0  0
   60.1252   19.0850   31.8099 O   0  0  0  0  0  0  0  0  0  0  0  0
   56.2237   17.3476   32.7757 O   0  0  0  0  0  0  0  0  0  0  0  0
   55.6323   16.4313   32.0032 C   0  0  0  0  0  0  0  0  0  0  0  0
  1  2  1  0
  1  3  1  0
  3  4  1  0
  5  2  1  1
  4  6  1  6
  4  7  1  0
  5  7  1  0
  5  8  1  0
  8  9  1  6
  8 10  1  0
 10 11  1  1
 11 12  1  0
 13  9  1  1
 13 14  1  0
 13 15  1  0
 14 16  1  6
 10 17  1  0
 14 17  1  0
 16 18  1  0
 19 12  1  1
 14 19  1  0
 16 20  2  0
 17 21  1  1
 19 22  1  0
 15 23  1  0
 22 23  1  0
M  END
$$$$
91
     RDKit          3D

 23 25  0  0  0  0  0  0  0  0999 V2000
   60.8156   12.4758   33.1898 C   0  0  0  0  0  0  0  0  0  0  0  0
   60.0189   13.5884   32.9009 C   0  0  0  0  0  0  0  0  0  0  0  0
   60.1957   14.6976   33.6170 C   0  0  1  0  0  0  0  0  0  0  0  0
   61.4538   12.4004   34.4455 C   0  0  0  0  0  0  0  0  0  0  0  0
   59.5512   15.9933   33.2463 C   0  0  2  0  0  0  0  0  0  0  0  0
   60.9421   14.7461   34.8227 C   0  0  0  0  0  0  0  0  0  0  0  0
   61.6274   13.6207   35.2309 C   0  0  1  0  0  0  0  0  0  0  0  0
   62.4196   13.6742   36.4760 C   0  0  0  0  0  0  0  0  0  0  0  0
   59.9337   17.2031   33.6684 O   0  0  0  0  0  0  0  0  0  0  0  0
   59.7113   18.3920   32.9463 C   0  0  1  0  0  0  0  0  0  0  0  0
   58.1476   15.8752   33.3448 O   0  0  0  0  0  0  0  0  0  0  0  0
   57.4088   16.5081   32.2878 C   0  0  1  0  0  0  0  0  0  0  0  0
   60.6732   19.3481   33.0174 C   0  0  0  0  0  0  0  0  0  0  0  0
   58.8502   18.5330   31.8378 C   0  0  2  0  0  0  0  0  0  0  0  0
   56.0873   16.0610   32.1343 C   0  0  0  0  0  0  0  0  0  0  0  0
   57.6592   17.7923   31.6584 N   0  0  0  0  0  0  0  0  0  0  0  0
   55.3447   16.7721   31.1418 C   0  0  0  0  0  0  0  0  0  0  0  0
   56.7200   17.6923   30.5086 C   0  0  1  0  0  0  0  0  0  0  0  0
   56.3245   19.1352   30.2274 C   0  0  0  0  0  0  0  0  0  0  0  0
   55.0108   19.5309   30.6536 C   0  0  0  0  0  0  0  0  0  0  0  0
   59.2933   18.3350   30.3888 O   0  0  0  0  0  0  0  0  0  0  0  0
   60.2120   20.5868   32.5393 O   0  0  0  0  0  0  0  0  0  0  0  0
   54.7744   20.9569   30.5416 C   0  0  0  0  0  0  0  0  0  0  0  0
  1  2  1  0
  3  2  1  1
  1  4  1  0
  3  5  1  0
  3  6  1  0
  4  7  1  0
  6  7  1  0
  7  8  1  1
  5  9  1  1
  9 10  1  0
  5 11  1  0
 11 12  1  0
 10 13  1  6
 10 14  1  0
 12 15  1  1
 12 16  1  0
 14 16  1  0
 15 17  1  0
 16 18  1  0
 17 18  1  0
 18 19  1  1
 19 20  1  0
 14 21  1  6
 13 22  1  0
 20 23  1  0
M  END
$$$$
92
     RDKit          3D

 23 24  0  0  0  0  0  0  0  0999 V2000
   56.0267   17.9876   33.9524 O   0  0  0  0  0  0  0  0  0  0  0  0
   56.9684   17.9993   33.0146 C   0  0  0  0  0  0  0  0  0  0  0  0
   56.7467   17.2623   31.7573 N   0  0  0  0  0  0  0  0  0  0  0  0
   58.2935   18.3560   33.1509 C   0  0  0  0  0  0  0  0  0  0  0  0
   57.7296   17.1567   30.7770 C   0  0  1  0  0  0  0  0  0  0  0  0
   55.5056   16.6538   31.4677 C   0  0  0  0  0  0  0  0  0  0  0  0
   54.6862   17.2332   30.5532 C   0  0  1  0  0  0  0  0  0  0  0  0
   58.8362   18.2188   31.0271 C   0  0  0  0  0  0  0  0  0  0  0  0
   58.3736   15.9568   30.5456 O   0  0  0  0  0  0  0  0  0  0  0  0
   58.8939   19.0502   32.0617 N   0  0  0  0  0  0  0  0  0  0  0  0
   54.8942   18.4966   30.0788 C   0  0  2  0  0  0  0  0  0  0  0  0
   60.1891   19.6857   32.4487 C   0  0  0  0  0  0  0  0  0  0  0  0
   53.5985   16.3125   30.0800 C   0  0  0  0  0  0  0  0  0  0  0  0
   59.6915   18.4077   30.0014 O   0  0  0  0  0  0  0  0  0  0  0  0
   55.8384   19.3383   30.5429 O   0  0  0  0  0  0  0  0  0  0  0  0
   60.4347   19.7883   33.6502 O   0  0  0  0  0  0  0  0  0  0  0  0
   52.6227   16.8083   29.1857 C   0  0  0  0  0  0  0  0  0  0  0  0
   51.5509   15.9922   28.6484 C   0  0  0  0  0  0  0  0  0  0  0  0
   53.8778   18.9290   29.1372 C   0  0  0  0  0  0  0  0  0  0  0  0
   53.9164   20.1716   28.5344 O   0  0  0  0  0  0  0  0  0  0  0  0
   52.6359   18.1794   28.6932 C   0  0  0  0  0  0  0  0  0  0  0  0
   50.4764   16.4709   28.3222 O   0  0  0  0  0  0  0  0  0  0  0  0
   51.6715   14.6281   28.5644 O   0  0  0  0  0  0  0  0  0  0  0  0
  1  2  2  0
  2  3  1  0
  2  4  1  0
  3  5  1  0
  3  6  1  0
  7  6  1  6
  5  8  1  0
  5  9  1  1
  4 10  1  0
  8 10  1  0
  7 11  1  0
 10 12  1  0
  7 13  1  0
  8 14  2  0
 11 15  1  1
 12 16  1  0
 13 17  1  0
 17 18  1  0
 11 19  1  0
 19 20  1  0
 17 21  1  0
 19 21  1  0
 18 22  2  0
 18 23  1  0
M  END
$$$$
93
     RDKit          3D

 23 25  0  0  0  0  0  0  0  0999 V2000
   60.8156   12.4758   33.1898 C   0  0  0  0  0  0  0  0  0  0  0  0
   60.0189   13.5884   32.9009 C   0  0  0  0  0  0  0  0  0  0  0  0
   60.1957   14.6976   33.6170 C   0  0  1  0  0  0  0  0  0  0  0  0
   61.4538   12.4004   34.4455 C   0  0  0  0  0  0  0  0  0  0  0  0
   59.5512   15.9933   33.2463 C   0  0  0  0  0  0  0  0  0  0  0  0
   60.9421   14.7461   34.8227 C   0  0  0  0  0  0  0  0  0  0  0  0
   61.6274   13.6207   35.2309 C   0  0  1  0  0  0  0  0  0  0  0  0
   62.4196   13.6742   36.4760 C   0  0  0  0  0  0  0  0  0  0  0  0
   59.9337   17.2031   33.6684 O   0  0  0  0  0  0  0  0  0  0  0  0
   58.4479   16.0551   32.4387 C   0  0  0  0  0  0  0  0  0  0  0  0
   57.9684   17.4350   32.2070 C   0  0  1  0  0  0  0  0  0  0  0  0
   59.2430   18.2522   33.0359 C   0  0  1  0  0  0  0  0  0  0  0  0
   57.9174   17.8121   30.8500 C   0  0  0  0  0  0  0  0  0  0  0  0
   59.2903   19.5814   33.1981 C   0  0  0  0  0  0  0  0  0  0  0  0
   56.6261   17.7566   32.9214 C   0  0  0  0  0  0  0  0  0  0  0  0
   56.7054   17.9958   30.2988 N   0  0  0  0  0  0  0  0  0  0  0  0
   58.8989   17.8377   30.0039 N   0  0  0  0  0  0  0  0  0  0  0  0
   58.7389   18.3375   28.7147 N   0  0  0  0  0  0  0  0  0  0  0  0
   56.3457   17.1618   33.8830 O   0  0  0  0  0  0  0  0  0  0  0  0
   60.5422   20.0274   33.2491 C   0  0  0  0  0  0  0  0  0  0  0  0
   55.8360   18.5898   32.4127 N   0  0  0  0  0  0  0  0  0  0  0  0
   55.6807   18.6561   31.0065 C   0  0  2  0  0  0  0  0  0  0  0  0
   54.5908   19.1297   30.5627 N   0  0  0  0  0  0  0  0  0  0  0  0
  1  2  1  0
  2  3  1  0
  1  4  1  0
  3  5  1  1
  3  6  1  0
  4  7  1  0
  6  7  1  0
  7  8  1  1
  5  9  1  0
  5 10  1  0
 11 10  1  6
  9 12  1  0
 11 12  1  0
 11 13  1  0
 12 14  1  1
 11 15  1  0
 13 16  1  0
 13 17  2  3
 17 18  1  0
 15 19  2  0
 14 20  1  0
 15 21  1  0
 16 22  1  0
 21 22  1  0
 22 23  1  1
M  END
$$$$
94
     RDKit          3D

 23 24  0  0  0  0  0  0  0  0999 V2000
   56.0267   17.9876   33.9524 O   0  0  0  0  0  0  0  0  0  0  0  0
   56.9684   17.9993   33.0146 C   0  0  0  0  0  0  0  0  0  0  0  0
   56.7467   17.2623   31.7573 N   0  0  0  0  0  0  0  0  0  0  0  0
   58.2935   18.3560   33.1509 C   0  0  0  0  0  0  0  0  0  0  0  0
   57.7296   17.1567   30.7770 C   0  0  1  0  0  0  0  0  0  0  0  0
   55.5056   16.6538   31.4677 C   0  0  0  0  0  0  0  0  0  0  0  0
   54.6862   17.2332   30.5532 C   0  0  1  0  0  0  0  0  0  0  0  0
   58.8362   18.2188   31.0271 C   0  0  0  0  0  0  0  0  0  0  0  0
   58.3736   15.9568   30.5456 O   0  0  0  0  0  0  0  0  0  0  0  0
   58.8939   19.0502   32.0617 N   0  0  0  0  0  0  0  0  0  0  0  0
   54.8942   18.4966   30.0788 C   0  0  2  0  0  0  0  0  0  0  0  0
   60.1891   19.6857   32.4487 C   0  0  0  0  0  0  0  0  0  0  0  0
   53.5985   16.3125   30.0800 C   0  0  0  0  0  0  0  0  0  0  0  0
   59.6915   18.4077   30.0014 O   0  0  0  0  0  0  0  0  0  0  0  0
   55.8384   19.3383   30.5429 O   0  0  0  0  0  0  0  0  0  0  0  0
   60.4347   19.7883   33.6502 O   0  0  0  0  0  0  0  0  0  0  0  0
   52.6227   16.8083   29.1857 C   0  0  2  0  0  0  0  0  0  0  0  0
   51.5509   15.9922   28.6484 C   0  0  0  0  0  0  0  0  0  0  0  0
   53.8778   18.9290   29.1372 C   0  0  0  0  0  0  0  0  0  0  0  0
   52.8113   18.0254   28.6471 C   0  0  0  0  0  0  0  0  0  0  0  0
   51.7107   14.8125   28.2210 O   0  0  0  0  0  0  0  0  0  0  0  0
   50.3985   16.5668   28.5793 O   0  0  0  0  0  0  0  0  0  0  0  0
   61.7313   19.7648   34.2215 C   0  0  0  0  0  0  0  0  0  0  0  0
  1  2  2  0
  2  3  1  0
  2  4  1  0
  3  5  1  0
  3  6  1  0
  7  6  1  6
  5  8  1  0
  5  9  1  1
  4 10  1  0
  8 10  1  0
  7 11  1  0
 10 12  1  0
  7 13  1  0
  8 14  2  0
 11 15  1  1
 12 16  1  0
 13 17  1  0
 17 18  1  6
 11 19  1  0
 17 20  1  0
 19 20  1  0
 18 21  2  0
 18 22  1  0
 16 23  1  0
M  END
$$$$
95
     RDKit          3D

 23 25  0  0  0  0  0  0  0  0999 V2000
   60.4361   12.9922   32.7047 C   0  0  0  0  0  0  0  0  0  0  0  0
   61.1585   12.9365   33.8689 C   0  0  0  0  0  0  0  0  0  0  0  0
   61.1462   13.7864   34.7412 C   0  0  1  0  0  0  0  0  0  0  0  0
   61.9402   13.7124   36.0073 C   0  0  0  0  0  0  0  0  0  0  0  0
   63.1433   13.2743   35.9863 O   0  0  0  0  0  0  0  0  0  0  0  0
   59.5413   14.0917   32.5025 C   0  0  0  0  0  0  0  0  0  0  0  0
   59.6413   15.1344   33.3848 C   0  0  2  0  0  0  0  0  0  0  0  0
   60.4354   15.0494   34.6507 C   0  0  0  0  0  0  0  0  0  0  0  0
   58.8823   16.4351   33.1522 C   0  0  2  0  0  0  0  0  0  0  0  0
   61.3458   13.6234   37.2484 O   0  0  0  0  0  0  0  0  0  0  0  0
   58.1321   16.4780   32.1257 O   0  0  0  0  0  0  0  0  0  0  0  0
   59.2144   17.5620   33.8247 O   0  0  0  0  0  0  0  0  0  0  0  0
   59.2018   18.7857   33.0692 C   0  0  2  0  0  0  0  0  0  0  0  0
   59.1307   19.8844   34.0953 C   0  0  0  0  0  0  0  0  0  0  0  0
   57.3044   17.3735   31.7538 C   0  0  2  0  0  0  0  0  0  0  0  0
   58.0644   18.7162   32.0039 C   0  0  2  0  0  0  0  0  0  0  0  0
   58.6532   19.0315   30.6470 N   0  0  0  0  0  0  0  0  0  0  0  0
   60.4865   20.0853   34.6048 C   0  0  0  0  0  0  0  0  0  0  0  0
   56.1236   17.1782   32.7447 O   0  0  0  0  0  0  0  0  0  0  0  0
   60.6362   20.3658   35.9056 O   0  0  0  0  0  0  0  0  0  0  0  0
   56.7824   17.3974   30.3583 C   0  0  2  0  0  0  0  0  0  0  0  0
   57.7004   18.4371   29.6598 C   0  0  0  0  0  0  0  0  0  0  0  0
   55.4329   17.4699   30.1554 O   0  0  0  0  0  0  0  0  0  0  0  0
  1  2  1  0
  2  3  1  0
  3  4  1  6
  4  5  1  0
  1  6  1  0
  7  6  1  1
  3  8  1  0
  7  8  1  0
  7  9  1  0
  4 10  2  0
  9 11  1  6
  9 12  1  0
 12 13  1  0
 13 14  1  1
 11 15  1  0
 13 16  1  0
 15 16  1  0
 16 17  1  6
 14 18  1  0
 15 19  1  1
 18 20  1  0
 15 21  1  0
 17 22  1  0
 21 22  1  0
 21 23  1  1
M  END
$$$$
96
     RDKit          3D

 23 26  0  0  0  0  0  0  0  0999 V2000
   56.2842   18.1561   33.9954 O   0  0  0  0  0  0  0  0  0  0  0  0
   57.1336   18.1061   33.0700 C   0  0  0  0  0  0  0  0  0  0  0  0
   57.1036   17.3336   31.8228 N   0  0  0  0  0  0  0  0  0  0  0  0
   56.1462   16.3486   31.6551 C   0  0  0  0  0  0  0  0  0  0  0  0
   58.1799   19.0503   33.0162 C   0  0  2  0  0  0  0  0  0  0  0  0
   59.0429   19.3024   31.9728 C   0  0  1  0  0  0  0  0  0  0  0  0
   57.9784   17.5845   30.6732 C   0  0  2  0  0  0  0  0  0  0  0  0
   58.7564   18.7071   30.7213 N   0  0  0  0  0  0  0  0  0  0  0  0
   59.5116   20.6674   32.1594 O   0  0  0  0  0  0  0  0  0  0  0  0
   59.1999   18.9041   34.1583 O   0  0  0  0  0  0  0  0  0  0  0  0
   56.1236   16.0348   30.2960 C   0  0  2  0  0  0  0  0  0  0  0  0
   60.3042   18.1753   33.6586 C   0  0  2  0  0  0  0  0  0  0  0  0
   60.4109   18.4220   32.3535 C   0  0  0  0  0  0  0  0  0  0  0  0
   60.2170   16.8267   34.2706 C   0  0  0  0  0  0  0  0  0  0  0  0
   57.2926   16.8459   29.6524 C   0  0  0  0  0  0  0  0  0  0  0  0
   55.2721   15.2490   29.5280 C   0  0  0  0  0  0  0  0  0  0  0  0
   59.2871   16.0361   34.1824 C   0  0  0  0  0  0  0  0  0  0  0  0
   61.4943   16.0981   34.5952 C   0  0  0  0  0  0  0  0  0  0  0  0
   61.2551   14.8736   34.9233 C   0  0  0  0  0  0  0  0  0  0  0  0
   59.4272   14.6369   34.4431 S   0  0  0  0  0  0  0  0  0  0  0  0
   54.1389   14.7714   30.3068 C   0  0  0  0  0  0  0  0  0  0  0  0
   59.5335   18.7182   29.5574 C   0  0  0  0  0  0  0  0  0  0  0  0
   60.4077   13.9499   34.8617 C   0  0  0  0  0  0  0  0  0  0  0  0
  1  2  2  0
  2  3  1  0
  3  4  1  0
  2  5  1  0
  5  6  1  0
  3  7  1  0
  6  8  1  0
  7  8  1  0
  6  9  1  6
  5 10  1  1
  4 11  1  0
 10 12  1  0
  6 13  1  0
 12 13  1  0
 12 14  1  6
  7 15  1  6
 11 15  1  0
 11 16  1  6
 14 17  2  0
 14 18  1  0
 18 19  1  0
 17 20  1  0
 16 21  1  0
  8 22  1  0
 19 23  1  0
 20 23  1  0
M  END
$$$$
97
     RDKit          3D

 23 25  0  0  0  0  0  0  0  0999 V2000
   62.6946   13.2798   34.8710 C   0  0  0  0  0  0  0  0  0  0  0  0
   62.4127   14.5040   35.3114 C   0  0  1  0  0  0  0  0  0  0  0  0
   63.1565   15.0470   36.2685 C   0  0  0  0  0  0  0  0  0  0  0  0
   62.0672   15.3941   34.1859 O   0  0  0  0  0  0  0  0  0  0  0  0
   61.7272   12.3025   34.4936 C   0  0  0  0  0  0  0  0  0  0  0  0
   63.9116   14.0739   37.0032 O   0  0  0  0  0  0  0  0  0  0  0  0
   60.6672   12.9271   33.6710 C   0  0  0  0  0  0  0  0  0  0  0  0
   60.3156   14.2265   33.8968 C   0  0  0  0  0  0  0  0  0  0  0  0
   60.7842   15.4389   33.8676 C   0  0  0  0  0  0  0  0  0  0  0  0
   60.4200   16.6106   33.6173 C   0  0  0  0  0  0  0  0  0  0  0  0
   59.2759   16.7968   32.8733 O   0  0  0  0  0  0  0  0  0  0  0  0
   58.7793   17.9421   32.4898 C   0  0  2  0  0  0  0  0  0  0  0  0
   57.4228   18.2234   32.7751 C   0  0  0  0  0  0  0  0  0  0  0  0
   59.0662   18.1762   31.0239 C   0  0  2  0  0  0  0  0  0  0  0  0
   58.3109   17.2519   30.3259 N   0  0  0  0  0  0  0  0  0  0  0  0
   60.3842   18.1470   30.7476 N   0  0  0  0  0  0  0  0  0  0  0  0
   56.5118   17.6809   31.8842 N   0  0  0  0  0  0  0  0  0  0  0  0
   56.8865   17.5716   30.4781 C   0  0  2  0  0  0  0  0  0  0  0  0
   57.0278   18.7915   33.8596 O   0  0  0  0  0  0  0  0  0  0  0  0
   55.1238   17.5437   32.1905 O   0  0  0  0  0  0  0  0  0  0  0  0
   54.7965   16.5418   31.1757 C   0  0  0  0  0  0  0  0  0  0  0  0
   55.8177   16.4929   30.1078 C   0  0  0  0  0  0  0  0  0  0  0  0
   58.3183   17.2111   28.7785 C   0  0  0  0  0  0  0  0  0  0  0  0
  1  2  1  0
  2  3  1  6
  2  4  1  0
  1  5  1  0
  3  6  1  0
  5  7  1  0
  7  8  2  0
  4  9  1  0
  8  9  1  0
  9 10  1  0
 10 11  1  0
 12 11  1  6
 12 13  1  0
 12 14  1  0
 14 15  1  0
 14 16  1  1
 13 17  1  0
 15 18  1  0
 17 18  1  0
 13 19  2  0
 17 20  1  0
 20 21  1  0
 18 22  1  1
 21 22  1  0
 15 23  1  0
M  END
$$$$
98
     RDKit          3D

 23 24  0  0  0  0  0  0  0  0999 V2000
   62.6946   13.2798   34.8710 C   0  0  0  0  0  0  0  0  0  0  0  0
   61.7593   12.7551   34.2011 C   0  0  0  0  0  0  0  0  0  0  0  0
   60.7203   13.6125   33.6726 C   0  0  0  0  0  0  0  0  0  0  0  0
   60.8340   14.8854   34.2105 C   0  0  0  0  0  0  0  0  0  0  0  0
   61.7489   15.3768   35.0665 C   0  0  0  0  0  0  0  0  0  0  0  0
   62.7383   14.4793   35.4632 C   0  0  0  0  0  0  0  0  0  0  0  0
   59.7499   15.8176   33.8016 C   0  0  0  0  0  0  0  0  0  0  0  0
   59.4660   16.9183   34.5180 O   0  0  0  0  0  0  0  0  0  0  0  0
   59.0172   15.7562   32.6763 N   0  0  0  0  0  0  0  0  0  0  0  0
   57.8690   16.5670   32.3563 C   0  0  1  0  0  0  0  0  0  0  0  0
   57.6912   16.7163   30.9845 C   0  0  0  0  0  0  0  0  0  0  0  0
   57.0162   17.0687   33.2588 O   0  0  0  0  0  0  0  0  0  0  0  0
   58.0742   16.1523   29.9757 O   0  0  0  0  0  0  0  0  0  0  0  0
   56.6802   17.7442   30.6898 N   0  0  0  0  0  0  0  0  0  0  0  0
   56.5784   18.5334   29.5398 C   0  0  1  0  0  0  0  0  0  0  0  0
   56.2834   17.9607   32.4744 S   0  0  2  0  0  0  0  0  0  0  0  0
   55.2276   18.8317   29.5845 O   0  0  0  0  0  0  0  0  0  0  0  0
   57.5371   19.5486   29.3929 C   0  0  0  0  0  0  0  0  0  0  0  0
   54.2370   18.2605   29.0015 C   0  0  0  0  0  0  0  0  0  0  0  0
   58.5000   19.6329   30.6211 O   0  0  0  0  0  0  0  0  0  0  0  0
   53.1929   17.8246   29.8181 C   0  0  0  0  0  0  0  0  0  0  0  0
   56.9260   19.2484   32.9681 O   0  0  0  0  0  0  0  0  0  0  0  0
   53.0918   16.4908   29.9215 O   0  0  0  0  0  0  0  0  0  0  0  0
  1  2  1  0
  2  3  1  0
  3  4  1  0
  4  5  1  0
  1  6  1  0
  5  6  1  0
  4  7  1  0
  7  8  2  0
  7  9  1  0
 10  9  1  6
 10 11  1  0
 10 12  1  0
 11 13  2  0
 11 14  1  0
 14 15  1  0
 12 16  1  0
 14 16  1  0
 15 17  1  0
 15 18  1  1
 17 19  1  0
 18 20  1  0
 19 21  1  0
 16 22  1  1
 21 23  1  0
M  END
$$$$
99
     RDKit          3D

 23 25  0  0  0  0  0  0  0  0999 V2000
   62.6946   13.2798   34.8710 C   0  0  0  0  0  0  0  0  0  0  0  0
   62.4127   14.5040   35.3114 C   0  0  1  0  0  0  0  0  0  0  0  0
   63.1565   15.0470   36.2685 C   0  0  0  0  0  0  0  0  0  0  0  0
   62.0672   15.3941   34.1859 O   0  0  0  0  0  0  0  0  0  0  0  0
   61.7272   12.3025   34.4936 C   0  0  0  0  0  0  0  0  0  0  0  0
   63.9116   14.0739   37.0032 O   0  0  0  0  0  0  0  0  0  0  0  0
   60.6672   12.9271   33.6710 C   0  0  0  0  0  0  0  0  0  0  0  0
   60.3156   14.2265   33.8968 C   0  0  0  0  0  0  0  0  0  0  0  0
   60.7842   15.4389   33.8676 C   0  0  0  0  0  0  0  0  0  0  0  0
   60.4200   16.6106   33.6173 C   0  0  0  0  0  0  0  0  0  0  0  0
   59.2759   16.7968   32.8733 O   0  0  0  0  0  0  0  0  0  0  0  0
   58.7793   17.9421   32.4898 C   0  0  2  0  0  0  0  0  0  0  0  0
   57.4228   18.2234   32.7751 C   0  0  0  0  0  0  0  0  0  0  0  0
   59.0662   18.1762   31.0239 C   0  0  2  0  0  0  0  0  0  0  0  0
   58.3109   17.2519   30.3259 N   0  0  0  0  0  0  0  0  0  0  0  0
   60.3842   18.1470   30.7476 N   0  0  0  0  0  0  0  0  0  0  0  0
   56.5118   17.6809   31.8842 N   0  0  0  0  0  0  0  0  0  0  0  0
   56.8865   17.5716   30.4781 C   0  0  2  0  0  0  0  0  0  0  0  0
   57.0278   18.7915   33.8596 O   0  0  0  0  0  0  0  0  0  0  0  0
   55.1238   17.5437   32.1905 O   0  0  0  0  0  0  0  0  0  0  0  0
   54.7965   16.5418   31.1757 C   0  0  0  0  0  0  0  0  0  0  0  0
   55.8177   16.4929   30.1078 C   0  0  0  0  0  0  0  0  0  0  0  0
   58.3183   17.2111   28.7785 O   0  0  0  0  0  0  0  0  0  0  0  0
  1  2  1  0
  2  3  1  6
  2  4  1  0
  1  5  1  0
  3  6  1  0
  5  7  1  0
  7  8  2  0
  4  9  1  0
  8  9  1  0
  9 10  1  0
 10 11  1  0
 12 11  1  6
 12 13  1  0
 12 14  1  0
 14 15  1  0
 14 16  1  1
 13 17  1  0
 15 18  1  0
 17 18  1  0
 13 19  2  0
 17 20  1  0
 20 21  1  0
 18 22  1  1
 21 22  1  0
 15 23  1  0
M  END
$$$$
