0
     RDKit          3D

 11 12  0  0  0  0  0  0  0  0999 V2000
   10.1015   21.4335    1.5568 C   0  0  0  0  0  0  0  0  0  0  0  0
    9.0756   22.2549    1.4200 C   0  0  0  0  0  0  0  0  0  0  0  0
    8.9463   23.3982    2.3016 C   0  0  0  0  0  0  0  0  0  0  0  0
   11.0882   21.8436    2.4277 C   0  0  0  0  0  0  0  0  0  0  0  0
   10.9794   22.8958    3.2979 C   0  0  0  0  0  0  0  0  0  0  0  0
    9.8742   23.7096    3.2165 C   0  0  1  0  0  0  0  0  0  0  0  0
   11.9033   23.2979    4.3656 C   0  0  0  0  0  0  0  0  0  0  0  0
   11.9002   24.3921    4.9410 C   0  0  2  0  0  0  0  0  0  0  0  0
    9.6851   24.9559    4.0076 C   0  0  0  0  0  0  0  0  0  0  0  0
   10.6812   25.1949    4.9423 N   0  0  0  0  0  0  0  0  0  0  0  0
   13.0462   25.0745    5.3423 N   0  0  0  0  0  0  0  0  0  0  0  0
  1  2  1  0
  2  3  1  0
  1  4  1  0
  4  5  1  0
  6  3  1  6
  5  6  1  0
  5  7  1  0
  7  8  1  0
  6  9  1  0
  8 10  1  0
  9 10  1  0
  8 11  1  6
M  END
$$$$
1
     RDKit          3D

 11 12  0  0  0  0  0  0  0  0999 V2000
    8.7965   22.1129    1.8528 C   0  0  0  0  0  0  0  0  0  0  0  0
    8.7775   23.4197    2.1818 C   0  0  1  0  0  0  0  0  0  0  0  0
    9.9898   21.3899    2.0432 C   0  0  0  0  0  0  0  0  0  0  0  0
    7.6388   24.2938    2.0122 C   0  0  0  0  0  0  0  0  0  0  0  0
    6.4555   23.8304    2.1136 O   0  0  0  0  0  0  0  0  0  0  0  0
    9.8919   23.8759    2.8769 C   0  0  1  0  0  0  0  0  0  0  0  0
   11.0603   21.9006    2.6811 C   0  0  0  0  0  0  0  0  0  0  0  0
    7.8617   25.6868    2.3413 N   0  0  0  0  0  0  0  0  0  0  0  0
   11.0010   23.2070    3.0728 C   0  0  0  0  0  0  0  0  0  0  0  0
    9.0070   26.0916    2.9342 C   0  0  0  0  0  0  0  0  0  0  0  0
   10.0700   25.2214    3.1719 N   0  0  0  0  0  0  0  0  0  0  0  0
  2  1  1  1
  1  3  1  0
  2  4  1  0
  4  5  2  0
  2  6  1  0
  3  7  1  0
  4  8  1  0
  6  9  1  6
  7  9  1  0
  8 10  1  0
  6 11  1  0
 10 11  1  0
M  END
$$$$
10
     RDKit          3D

 15 15  0  0  0  0  0  0  0  0999 V2000
    8.8442   27.9866    8.3990 C   0  0  0  0  0  0  0  0  0  0  0  0
    8.3862   27.7454    7.2005 C   0  0  0  0  0  0  0  0  0  0  0  0
    8.7989   26.4306    6.5638 C   0  0  0  0  0  0  0  0  0  0  0  0
    9.5216   26.7657    9.0399 C   0  0  0  0  0  0  0  0  0  0  0  0
    9.7883   25.7136    8.2595 C   0  0  0  0  0  0  0  0  0  0  0  0
    9.3981   25.4869    7.1207 C   0  0  0  0  0  0  0  0  0  0  0  0
    9.6287   24.3461    6.2835 C   0  0  0  0  0  0  0  0  0  0  0  0
   10.5517   23.4319    6.8053 O   0  0  0  0  0  0  0  0  0  0  0  0
    9.5637   24.1614    5.0012 N   0  0  0  0  0  0  0  0  0  0  0  0
   10.1244   23.0669    4.2438 C   0  0  1  0  0  0  0  0  0  0  0  0
    9.5221   22.9161    3.0282 C   0  0  1  0  0  0  0  0  0  0  0  0
   11.2289   22.4471    4.5857 O   0  0  0  0  0  0  0  0  0  0  0  0
   10.0564   21.8686    2.0830 C   0  0  0  0  0  0  0  0  0  0  0  0
    8.0097   22.6000    2.9904 O   0  0  0  0  0  0  0  0  0  0  0  0
    9.6157   21.8369    0.8529 O   0  0  0  0  0  0  0  0  0  0  0  0
  1  2  1  0
  2  3  1  0
  1  4  1  0
  4  5  1  0
  3  6  1  0
  5  6  1  0
  6  7  1  0
  7  8  2  0
  7  9  1  0
  9 10  1  0
 10 11  1  0
 10 12  1  6
 11 13  1  0
 11 14  1  1
 13 15  1  0
M  END
$$$$
100
     RDKit          3D

 20 22  0  0  0  0  0  0  0  0999 V2000
   11.2748   22.4831    6.7586 O   0  0  0  0  0  0  0  0  0  0  0  0
   11.5551   23.4532    6.1569 C   0  0  0  0  0  0  0  0  0  0  0  0
   12.4574   23.4908    5.2001 N   0  0  0  0  0  0  0  0  0  0  0  0
   11.2830   24.8189    6.7838 C   0  0  0  0  0  0  0  0  0  0  0  0
    9.9611   24.9928    6.9903 C   0  0  2  0  0  0  0  0  0  0  0  0
    9.0080   24.6529    6.1519 N   0  0  0  0  0  0  0  0  0  0  0  0
    8.2798   25.8469    5.6378 C   0  0  1  0  0  0  0  0  0  0  0  0
    9.4139   26.3163    7.5628 N   0  0  0  0  0  0  0  0  0  0  0  0
    7.3311   25.8333    4.6677 N   0  0  0  0  0  0  0  0  0  0  0  0
    6.5709   26.8845    4.4856 C   0  0  0  0  0  0  0  0  0  0  0  0
    7.9591   25.4967    3.3269 C   0  0  2  0  0  0  0  0  0  0  0  0
   12.2864   22.9495    3.9594 C   0  0  0  0  0  0  0  0  0  0  0  0
   10.9276   23.0560    3.5124 C   0  0  1  0  0  0  0  0  0  0  0  0
    5.9590   27.0735    3.3095 O   0  0  0  0  0  0  0  0  0  0  0  0
    6.8420   25.9987    2.3008 C   0  0  0  0  0  0  0  0  0  0  0  0
    8.2715   26.6846    6.7217 C   0  0  0  0  0  0  0  0  0  0  0  0
   10.6577   24.2469    2.7857 C   0  0  0  0  0  0  0  0  0  0  0  0
    8.1901   24.1335    2.9892 C   0  0  0  0  0  0  0  0  0  0  0  0
   10.6446   21.8755    2.6149 C   0  0  0  0  0  0  0  0  0  0  0  0
    9.3742   24.6420    2.4164 C   0  0  0  0  0  0  0  0  0  0  0  0
  1  2  2  0
  2  3  1  0
  2  4  1  0
  5  4  1  6
  5  6  1  0
  6  7  1  0
  5  8  1  0
  7  9  1  0
  9 10  1  0
  9 11  1  0
  3 12  1  0
 12 13  1  0
 10 14  1  0
 11 15  1  6
 14 15  1  0
  7 16  1  1
  8 16  1  0
 13 17  1  0
 11 18  1  0
 13 19  1  6
 17 20  1  0
 18 20  1  0
M  END
$$$$
101
     RDKit          3D

 20 22  0  0  0  0  0  0  0  0999 V2000
    8.8442   27.9866    8.3990 C   0  0  0  0  0  0  0  0  0  0  0  0
    8.3862   27.7454    7.2005 C   0  0  0  0  0  0  0  0  0  0  0  0
    8.7989   26.4306    6.5638 C   0  0  2  0  0  0  0  0  0  0  0  0
    9.5216   26.7657    9.0399 C   0  0  0  0  0  0  0  0  0  0  0  0
    9.7883   25.7136    8.2595 C   0  0  0  0  0  0  0  0  0  0  0  0
    9.4207   25.5619    7.2003 C   0  0  2  0  0  0  0  0  0  0  0  0
    9.6919   24.3419    6.3681 C   0  0  0  0  0  0  0  0  0  0  0  0
   10.5648   23.4549    6.9545 O   0  0  0  0  0  0  0  0  0  0  0  0
    9.3420   24.0179    5.1702 N   0  0  0  0  0  0  0  0  0  0  0  0
    9.9394   22.9877    4.3791 C   0  0  1  0  0  0  0  0  0  0  0  0
    9.4472   22.9273    3.0491 C   0  0  1  0  0  0  0  0  0  0  0  0
   11.4825   23.2256    4.2025 C   0  0  0  0  0  0  0  0  0  0  0  0
    9.4968   24.1068    2.2966 C   0  0  0  0  0  0  0  0  0  0  0  0
    8.9705   21.6900    2.4150 C   0  0  0  0  0  0  0  0  0  0  0  0
    9.6660   21.4553    1.2026 C   0  0  0  0  0  0  0  0  0  0  0  0
    9.4657   25.3558    2.8613 C   0  0  0  0  0  0  0  0  0  0  0  0
    8.9032   25.2067    4.3874 C   0  0  2  0  0  0  0  0  0  0  0  0
    8.7538   26.5290    5.1049 C   0  0  0  0  0  0  0  0  0  0  0  0
   11.9357   24.3520    3.5478 O   0  0  0  0  0  0  0  0  0  0  0  0
   12.3263   22.2970    4.3917 O   0  0  0  0  0  0  0  0  0  0  0  0
  1  2  1  0
  3  2  1  1
  1  4  1  0
  4  5  1  0
  3  6  1  0
  6  5  1  6
  6  7  1  0
  7  8  2  0
  7  9  1  0
  9 10  1  0
 10 11  1  0
 10 12  1  6
 11 13  1  0
 11 14  1  6
 14 15  1  0
 13 16  1  0
  9 17  1  0
 17 16  1  6
  3 18  1  0
 17 18  1  0
 12 19  2  0
 12 20  1  0
M  END
$$$$
102
     RDKit          3D

 20 21  0  0  0  0  0  0  0  0999 V2000
    7.8042   23.4530    2.0953 C   0  0  0  0  0  0  0  0  0  0  0  0
    8.6685   22.7031    2.0448 C   0  0  2  0  0  0  0  0  0  0  0  0
    9.9870   22.8125    2.6039 C   0  0  2  0  0  0  0  0  0  0  0  0
    9.1622   21.5227    1.1182 N   0  0  0  0  0  0  0  0  0  0  0  0
   11.0215   21.9187    2.4553 N   0  0  0  0  0  0  0  0  0  0  0  0
    7.7873   24.5890    2.6456 C   0  0  1  0  0  0  0  0  0  0  0  0
    6.6832   25.5422    2.8202 C   0  0  1  0  0  0  0  0  0  0  0  0
   10.3617   21.1033    1.3880 C   0  0  0  0  0  0  0  0  0  0  0  0
   10.0925   23.8974    3.7066 C   0  0  0  0  0  0  0  0  0  0  0  0
    8.9449   24.7992    3.6196 C   0  0  0  0  0  0  0  0  0  0  0  0
    8.9896   25.9179    4.5717 C   0  0  0  0  0  0  0  0  0  0  0  0
    9.4616   25.6855    5.8883 N   0  0  0  0  0  0  0  0  0  0  0  0
    5.7451   25.4464    1.8681 C   0  0  0  0  0  0  0  0  0  0  0  0
    4.9395   26.5641    1.6764 O   0  0  0  0  0  0  0  0  0  0  0  0
    8.6469   25.1763    6.9001 C   0  0  0  0  0  0  0  0  0  0  0  0
    5.9688   25.7067    4.0416 N   0  0  0  0  0  0  0  0  0  0  0  0
    8.8184   26.1259    8.0548 C   0  0  2  0  0  0  0  0  0  0  0  0
    7.7649   27.0043    8.4253 C   0  0  0  0  0  0  0  0  0  0  0  0
    7.6509   27.9994    7.5720 N   0  0  0  0  0  0  0  0  0  0  0  0
   10.0252   26.3623    8.7282 C   0  0  0  0  0  0  0  0  0  0  0  0
  2  1  1  6
  2  3  1  0
  2  4  1  0
  3  5  1  0
  6  1  1  1
  6  7  1  0
  4  8  1  0
  5  8  1  0
  3  9  1  1
  6 10  1  0
  9 10  1  0
 10 11  1  0
 11 12  1  0
  7 13  1  0
 13 14  1  0
 12 15  1  0
  7 16  1  1
 15 17  1  0
 17 18  1  0
 18 19  1  0
 17 20  1  6
M  END
$$$$
103
     RDKit          3D

 20 22  0  0  0  0  0  0  0  0999 V2000
    7.6235   28.1098    7.8805 N   0  0  0  0  0  0  0  0  0  0  0  0
    8.7563   27.5902    8.4482 C   0  0  0  0  0  0  0  0  0  0  0  0
    7.2671   27.5450    6.7347 C   0  0  0  0  0  0  0  0  0  0  0  0
    9.4453   26.5172    7.9842 C   0  0  0  0  0  0  0  0  0  0  0  0
    7.9301   26.6109    6.2767 N   0  0  0  0  0  0  0  0  0  0  0  0
    8.9986   26.0311    6.9495 C   0  0  1  0  0  0  0  0  0  0  0  0
    9.6573   24.9359    6.2158 C   0  0  2  0  0  0  0  0  0  0  0  0
   10.8749   24.6672    6.4633 C   0  0  0  0  0  0  0  0  0  0  0  0
   11.5391   23.5526    5.7891 N   0  0  0  0  0  0  0  0  0  0  0  0
    9.4673   25.0525    4.6635 C   0  0  1  0  0  0  0  0  0  0  0  0
   11.4551   23.6491    4.3763 C   0  0  0  0  0  0  0  0  0  0  0  0
   10.0527   23.8605    4.0594 C   0  0  1  0  0  0  0  0  0  0  0  0
   12.2877   23.1668    3.6005 O   0  0  0  0  0  0  0  0  0  0  0  0
    9.2573   22.6856    4.3462 O   0  0  0  0  0  0  0  0  0  0  0  0
   10.0261   24.1963    2.4869 C   0  0  2  0  0  0  0  0  0  0  0  0
    9.3033   25.3389    2.3303 O   0  0  0  0  0  0  0  0  0  0  0  0
    9.6880   22.9811    1.6898 C   0  0  0  0  0  0  0  0  0  0  0  0
   10.5690   21.9469    1.5815 O   0  0  0  0  0  0  0  0  0  0  0  0
    8.4157   25.2900    3.9837 O   0  0  0  0  0  0  0  0  0  0  0  0
   12.2616   22.5981    6.4867 C   0  0  0  0  0  0  0  0  0  0  0  0
  1  2  1  0
  1  3  1  0
  2  4  1  0
  3  5  1  0
  6  4  1  6
  5  6  1  0
  6  7  1  0
  7  8  1  6
  8  9  1  0
  7 10  1  0
  9 11  1  0
 10 12  1  0
 11 12  1  0
 11 13  2  0
 12 14  1  6
 12 15  1  0
 15 16  1  0
 15 17  1  6
 17 18  1  0
 10 19  1  1
 16 19  1  0
  9 20  1  0
M  END
$$$$
104
     RDKit          3D

 20 22  0  0  0  0  0  0  0  0999 V2000
    6.8884   27.0330    8.2570 C   0  0  0  0  0  0  0  0  0  0  0  0
    8.1262   26.8767    8.8133 C   0  0  0  0  0  0  0  0  0  0  0  0
    8.9435   25.8558    8.3217 C   0  0  2  0  0  0  0  0  0  0  0  0
   10.2755   25.7337    8.5748 C   0  0  0  0  0  0  0  0  0  0  0  0
    6.4503   26.3269    7.1379 N   0  0  0  0  0  0  0  0  0  0  0  0
    8.5997   25.5217    6.8392 C   0  0  2  0  0  0  0  0  0  0  0  0
    7.3820   25.6538    6.3999 C   0  0  0  0  0  0  0  0  0  0  0  0
   11.0461   25.0436    7.7000 C   0  0  0  0  0  0  0  0  0  0  0  0
    9.7423   24.8261    6.3466 C   0  0  2  0  0  0  0  0  0  0  0  0
    9.9016   24.2760    5.1419 C   0  0  0  0  0  0  0  0  0  0  0  0
    9.1377   24.2902    4.1962 O   0  0  0  0  0  0  0  0  0  0  0  0
   11.0937   23.5014    4.8230 C   0  0  0  0  0  0  0  0  0  0  0  0
    9.3283   23.7848    2.9638 C   0  0  1  0  0  0  0  0  0  0  0  0
   10.3562   22.9085    2.7103 C   0  0  0  0  0  0  0  0  0  0  0  0
    8.1606   24.0273    1.8994 C   0  0  0  0  0  0  0  0  0  0  0  0
    7.8594   22.9404    1.1623 F   0  0  0  0  0  0  0  0  0  0  0  0
    8.5831   25.0402    1.1081 F   0  0  0  0  0  0  0  0  0  0  0  0
    6.9870   24.4200    2.4594 F   0  0  0  0  0  0  0  0  0  0  0  0
   11.2965   22.8533    3.6663 C   0  0  0  0  0  0  0  0  0  0  0  0
   10.4299   22.0978    1.4311 C   0  0  0  0  0  0  0  0  0  0  0  0
  1  2  1  0
  3  2  1  6
  3  4  1  0
  1  5  1  0
  3  6  1  0
  5  7  1  0
  6  7  1  1
  4  8  1  0
  6  9  1  0
  8  9  1  0
  9 10  1  6
 10 11  1  0
 10 12  1  0
 11 13  1  0
 13 14  1  0
 13 15  1  1
 15 16  1  0
 15 17  1  0
 15 18  1  0
 12 19  1  0
 14 19  1  0
 14 20  1  0
M  END
$$$$
105
     RDKit          3D

 20 22  0  0  0  0  0  0  0  0999 V2000
   10.1015   21.4335    1.5568 C   0  0  0  0  0  0  0  0  0  0  0  0
    9.0756   22.2549    1.4200 C   0  0  0  0  0  0  0  0  0  0  0  0
   10.9996   21.6763    2.5971 C   0  0  0  0  0  0  0  0  0  0  0  0
   10.7213   22.8722    3.2535 C   0  0  0  0  0  0  0  0  0  0  0  0
    8.8238   23.4253    2.1421 C   0  0  2  0  0  0  0  0  0  0  0  0
    7.7244   24.2777    1.8984 O   0  0  0  0  0  0  0  0  0  0  0  0
    6.9487   24.6177    2.7530 C   0  0  0  0  0  0  0  0  0  0  0  0
   11.7605   23.2036    4.3827 C   0  0  0  0  0  0  0  0  0  0  0  0
    9.8295   23.7386    3.0843 C   0  0  1  0  0  0  0  0  0  0  0  0
    7.6375   25.7834    3.5816 C   0  0  1  0  0  0  0  0  0  0  0  0
    6.7297   26.4788    4.3242 C   0  0  0  0  0  0  0  0  0  0  0  0
    7.4747   27.2433    5.4456 C   0  0  0  0  0  0  0  0  0  0  0  0
    8.9843   25.6502    3.9094 N   0  0  0  0  0  0  0  0  0  0  0  0
    9.6977   24.6947    4.0200 C   0  0  2  0  0  0  0  0  0  0  0  0
    5.7301   24.4143    2.8624 O   0  0  0  0  0  0  0  0  0  0  0  0
    6.6506   27.3545    6.7434 C   0  0  0  0  0  0  0  0  0  0  0  0
    7.5754   27.6124    7.8942 N   0  0  0  0  0  0  0  0  0  0  0  0
    8.8197   28.0077    7.8160 C   0  0  0  0  0  0  0  0  0  0  0  0
   11.2317   24.5430    4.8570 S   0  0  0  0  0  0  0  0  0  0  0  0
    9.4667   27.6672    8.9802 C   0  0  0  0  0  0  0  0  0  0  0  0
  1  2  1  0
  1  3  1  0
  3  4  1  0
  5  2  1  6
  5  6  1  0
  6  7  1  0
  4  8  1  0
  9  4  1  1
  5  9  1  0
  7 10  1  0
 10 11  1  1
 11 12  1  0
 10 13  1  0
  9 14  1  0
 14 13  1  6
  7 15  2  0
 12 16  1  0
 16 17  1  0
 17 18  1  0
  8 19  1  0
 14 19  1  0
 18 20  1  0
M  END
$$$$
106
     RDKit          3D

 20 22  0  0  0  0  0  0  0  0999 V2000
    8.4262   28.2013    8.2709 C   0  0  0  0  0  0  0  0  0  0  0  0
    9.2342   27.2918    8.9477 C   0  0  0  0  0  0  0  0  0  0  0  0
    9.2119   26.1963    8.1698 C   0  0  2  0  0  0  0  0  0  0  0  0
    7.8917   28.2175    7.0914 C   0  0  0  0  0  0  0  0  0  0  0  0
    8.7343   26.0128    6.8865 C   0  0  0  0  0  0  0  0  0  0  0  0
    9.0288   24.7630    6.2307 N   0  0  0  0  0  0  0  0  0  0  0  0
    8.0260   27.0160    6.3335 C   0  0  0  0  0  0  0  0  0  0  0  0
    9.4444   24.7375    4.9446 C   0  0  0  0  0  0  0  0  0  0  0  0
   10.1943   23.5549    4.6639 C   0  0  2  0  0  0  0  0  0  0  0  0
   10.9153   22.9487    5.7370 C   0  0  0  0  0  0  0  0  0  0  0  0
   11.1773   23.5735    3.4587 C   0  0  1  0  0  0  0  0  0  0  0  0
   11.8900   22.1596    5.5672 O   0  0  0  0  0  0  0  0  0  0  0  0
   10.5421   22.9400    2.1939 C   0  0  0  0  0  0  0  0  0  0  0  0
   11.5300   24.9336    2.9638 N   0  0  0  0  0  0  0  0  0  0  0  0
   10.6519   23.3438    6.9508 N   0  0  0  0  0  0  0  0  0  0  0  0
    9.4095   23.4812    1.7918 O   0  0  0  0  0  0  0  0  0  0  0  0
    8.2186   22.5517    1.9971 C   0  0  0  0  0  0  0  0  0  0  0  0
    9.6873   24.2786    7.2541 C   0  0  1  0  0  0  0  0  0  0  0  0
   10.9896   21.8946    1.7516 O   0  0  0  0  0  0  0  0  0  0  0  0
    9.4904   24.7950    8.5471 N   0  0  0  0  0  0  0  0  0  0  0  0
  1  2  1  0
  3  2  1  1
  1  4  1  0
  3  5  1  0
  5  6  1  0
  4  7  1  0
  5  7  1  0
  6  8  1  0
  9  8  1  1
  9 10  1  0
  9 11  1  0
 10 12  2  0
 11 13  1  0
 11 14  1  6
 10 15  1  0
 13 16  1  0
 16 17  1  0
  6 18  1  0
 18 15  1  6
 13 19  2  0
  3 20  1  0
 18 20  1  0
M  END
$$$$
107
     RDKit          3D

 20 23  0  0  0  0  0  0  0  0999 V2000
   10.1015   21.4335    1.5568 C   0  0  0  0  0  0  0  0  0  0  0  0
    9.0756   22.2549    1.4200 C   0  0  0  0  0  0  0  0  0  0  0  0
    9.0409   23.2860    2.2569 C   0  0  0  0  0  0  0  0  0  0  0  0
   11.1359   21.5883    2.4066 C   0  0  0  0  0  0  0  0  0  0  0  0
   10.0397   23.5101    3.2485 C   0  0  0  0  0  0  0  0  0  0  0  0
   11.0568   22.6275    3.3051 C   0  0  2  0  0  0  0  0  0  0  0  0
    9.9751   24.7094    4.1427 C   0  0  1  0  0  0  0  0  0  0  0  0
    8.8738   25.3951    4.1985 C   0  0  0  0  0  0  0  0  0  0  0  0
   10.9601   24.7487    5.1790 C   0  0  2  0  0  0  0  0  0  0  0  0
   12.3133   24.4800    4.7798 C   0  0  0  0  0  0  0  0  0  0  0  0
   12.2783   22.9452    4.1269 C   0  0  0  0  0  0  0  0  0  0  0  0
   10.6099   24.0097    6.4562 C   0  0  0  0  0  0  0  0  0  0  0  0
   13.2380   25.2096    4.8263 O   0  0  0  0  0  0  0  0  0  0  0  0
   10.2508   24.7515    7.5171 C   0  0  0  0  0  0  0  0  0  0  0  0
   10.8610   26.0586    5.8760 O   0  0  0  0  0  0  0  0  0  0  0  0
   10.2523   26.1606    7.1399 C   0  0  0  0  0  0  0  0  0  0  0  0
    7.7915   24.2661    2.1678 C   0  0  0  0  0  0  0  0  0  0  0  0
    7.8557   25.3397    3.1431 C   0  0  0  0  0  0  0  0  0  0  0  0
    9.8920   27.2650    7.7096 O   0  0  0  0  0  0  0  0  0  0  0  0
    9.0407   27.1645    8.8509 C   0  0  0  0  0  0  0  0  0  0  0  0
  1  2  1  0
  2  3  1  0
  1  4  1  0
  3  5  1  0
  6  4  1  6
  5  6  1  0
  5  7  1  0
  7  8  1  1
  7  9  1  0
  9 10  1  0
  6 11  1  0
 10 11  1  0
  9 12  1  1
 10 13  2  0
 12 14  1  0
  9 15  1  0
 14 16  1  0
 15 16  1  0
  3 17  1  0
  8 18  1  0
 17 18  1  0
 16 19  1  0
 19 20  1  0
M  END
$$$$
108
     RDKit          3D

 20 22  0  0  0  0  0  0  0  0999 V2000
    8.2898   22.7720    2.1253 C   0  0  0  0  0  0  0  0  0  0  0  0
    8.5218   23.9739    2.6615 C   0  0  0  0  0  0  0  0  0  0  0  0
    7.4934   24.9463    2.5960 C   0  0  0  0  0  0  0  0  0  0  0  0
    9.8128   24.2246    3.2451 C   0  0  2  0  0  0  0  0  0  0  0  0
   10.0665   25.5263    3.7639 O   0  0  0  0  0  0  0  0  0  0  0  0
    7.8354   26.2608    3.1566 C   0  0  0  0  0  0  0  0  0  0  0  0
    9.3484   21.7930    2.0703 C   0  0  1  0  0  0  0  0  0  0  0  0
    9.1857   20.5983    1.3428 F   0  0  0  0  0  0  0  0  0  0  0  0
   10.6319   22.2005    2.4392 C   0  0  2  0  0  0  0  0  0  0  0  0
   11.7092   21.2418    2.3618 F   0  0  0  0  0  0  0  0  0  0  0  0
   10.9359   23.4085    3.0390 C   0  0  2  0  0  0  0  0  0  0  0  0
   12.3459   23.8608    3.5668 C   0  0  0  0  0  0  0  0  0  0  0  0
    6.2829   24.7378    2.0363 C   0  0  0  0  0  0  0  0  0  0  0  0
   12.2711   24.7423    4.5595 C   0  0  2  0  0  0  0  0  0  0  0  0
   13.2540   24.7031    5.5820 N   0  0  0  0  0  0  0  0  0  0  0  0
   11.0573   25.4614    4.7950 C   0  0  0  0  0  0  0  0  0  0  0  0
   10.8408   26.0327    5.9176 O   0  0  0  0  0  0  0  0  0  0  0  0
    6.7696   27.1227    3.2163 C   0  0  0  0  0  0  0  0  0  0  0  0
    5.4778   26.8211    2.6565 C   0  0  0  0  0  0  0  0  0  0  0  0
    5.2765   25.5824    2.0969 C   0  0  0  0  0  0  0  0  0  0  0  0
  1  2  1  0
  2  3  1  0
  2  4  1  0
  4  5  1  6
  3  6  1  0
  1  7  1  0
  7  8  1  6
  7  9  1  0
  9 10  1  1
  4 11  1  0
  9 11  1  0
 11 12  1  1
  3 13  1  0
 12 14  1  0
 14 15  1  1
  5 16  1  0
 14 16  1  0
 16 17  2  0
  6 18  1  0
 18 19  1  0
 13 20  1  0
 19 20  1  0
M  END
$$$$
109
     RDKit          3D

 20 23  0  0  0  0  0  0  0  0999 V2000
    9.6379   21.4497    1.6912 C   0  0  0  0  0  0  0  0  0  0  0  0
    8.6721   22.3973    1.9063 C   0  0  0  0  0  0  0  0  0  0  0  0
    9.0560   23.4995    2.7049 C   0  0  2  0  0  0  0  0  0  0  0  0
   10.9268   21.7103    2.1345 C   0  0  0  0  0  0  0  0  0  0  0  0
   10.2659   23.6360    3.2644 C   0  0  1  0  0  0  0  0  0  0  0  0
   11.2160   22.6838    2.9629 C   0  0  0  0  0  0  0  0  0  0  0  0
   10.5540   24.9114    4.0744 C   0  0  1  0  0  0  0  0  0  0  0  0
    9.3858   25.3954    4.6074 C   0  0  2  0  0  0  0  0  0  0  0  0
    9.4692   26.1600    5.7550 N   0  0  0  0  0  0  0  0  0  0  0  0
    8.4110   24.5765    3.5236 C   0  0  0  0  0  0  0  0  0  0  0  0
   11.8083   25.2353    4.6029 C   0  0  0  0  0  0  0  0  0  0  0  0
    8.2232   26.6127    6.1833 C   0  0  0  0  0  0  0  0  0  0  0  0
   11.8343   25.8105    5.8437 N   0  0  0  0  0  0  0  0  0  0  0  0
   13.0511   25.3020    3.9536 N   0  0  0  0  0  0  0  0  0  0  0  0
   10.6106   26.1594    6.4588 C   0  0  1  0  0  0  0  0  0  0  0  0
   10.5849   26.6682    7.8617 C   0  0  0  0  0  0  0  0  0  0  0  0
    7.1962   26.7921    5.7610 O   0  0  0  0  0  0  0  0  0  0  0  0
    9.2666   26.8844    8.3245 C   0  0  0  0  0  0  0  0  0  0  0  0
    8.1071   26.9084    7.7170 N   0  0  0  0  0  0  0  0  0  0  0  0
    6.9469   27.2799    8.3388 C   0  0  0  0  0  0  0  0  0  0  0  0
  1  2  1  0
  3  2  1  1
  1  4  1  0
  3  5  1  0
  4  6  1  0
  5  6  1  6
  5  7  1  0
  7  8  1  0
  8  9  1  0
  3 10  1  0
  8 10  1  1
  7 11  1  1
  9 12  1  0
 11 13  1  0
 11 14  2  0
  9 15  1  0
 13 15  1  0
 15 16  1  6
 12 17  2  0
 16 18  1  0
 12 19  1  0
 18 19  1  0
 19 20  1  0
M  END
$$$$
11
     RDKit          3D

 15 16  0  0  0  0  0  0  0  0999 V2000
    8.8442   27.9866    8.3990 C   0  0  0  0  0  0  0  0  0  0  0  0
    8.3862   27.7454    7.2005 C   0  0  0  0  0  0  0  0  0  0  0  0
    8.7989   26.4306    6.5638 C   0  0  0  0  0  0  0  0  0  0  0  0
    9.5216   26.7657    9.0399 C   0  0  0  0  0  0  0  0  0  0  0  0
    9.7883   25.7136    8.2595 C   0  0  0  0  0  0  0  0  0  0  0  0
    9.4207   25.5619    7.2003 C   0  0  0  0  0  0  0  0  0  0  0  0
    9.6377   24.3796    6.2810 C   0  0  0  0  0  0  0  0  0  0  0  0
    9.5500   24.2747    5.0689 N   0  0  0  0  0  0  0  0  0  0  0  0
   10.8011   23.5713    6.8330 O   0  0  0  0  0  0  0  0  0  0  0  0
    8.7735   24.9083    4.2092 C   0  0  0  0  0  0  0  0  0  0  0  0
   10.5454   23.4310    4.2015 C   0  0  0  0  0  0  0  0  0  0  0  0
   10.1741   23.0983    3.0127 C   0  0  0  0  0  0  0  0  0  0  0  0
    8.9474   24.2422    2.7884 C   0  0  0  0  0  0  0  0  0  0  0  0
   11.1616   22.9497    1.9962 C   0  0  0  0  0  0  0  0  0  0  0  0
    9.1090   21.9248    2.8788 C   0  0  0  0  0  0  0  0  0  0  0  0
  1  2  1  0
  2  3  1  0
  1  4  1  0
  4  5  1  0
  3  6  1  0
  5  6  1  0
  6  7  1  0
  7  8  1  0
  7  9  2  0
  8 10  1  0
  8 11  1  0
 11 12  1  0
 10 13  1  0
 12 13  1  0
 12 14  1  0
 12 15  1  0
M  END
$$$$
12
     RDKit          3D

 15 16  0  0  0  0  0  0  0  0999 V2000
    9.6379   21.4497    1.6912 C   0  0  0  0  0  0  0  0  0  0  0  0
    8.6721   22.3973    1.9063 C   0  0  0  0  0  0  0  0  0  0  0  0
   10.8675   21.5325    2.2139 C   0  0  0  0  0  0  0  0  0  0  0  0
    9.0613   23.5950    2.6342 C   0  0  2  0  0  0  0  0  0  0  0  0
   10.1376   23.6320    3.0767 C   0  0  0  0  0  0  0  0  0  0  0  0
    7.9570   24.5607    3.0677 C   0  0  0  0  0  0  0  0  0  0  0  0
   11.2104   22.7459    2.9423 C   0  0  0  0  0  0  0  0  0  0  0  0
    8.3571   25.4890    3.8528 C   0  0  0  0  0  0  0  0  0  0  0  0
    9.6364   25.7057    4.2729 N   0  0  0  0  0  0  0  0  0  0  0  0
   10.5907   24.8183    3.9541 C   0  0  2  0  0  0  0  0  0  0  0  0
   11.9421   25.0404    4.2616 N   0  0  0  0  0  0  0  0  0  0  0  0
   12.3325   25.5200    5.5193 C   0  0  0  0  0  0  0  0  0  0  0  0
   13.0337   24.5111    6.3253 C   0  0  0  0  0  0  0  0  0  0  0  0
   11.9570   23.6317    6.6153 C   0  0  0  0  0  0  0  0  0  0  0  0
   10.8837   24.1354    7.3064 O   0  0  0  0  0  0  0  0  0  0  0  0
  1  2  1  0
  1  3  1  0
  4  2  1  1
  4  5  1  0
  4  6  1  0
  3  7  1  0
  5  7  1  0
  6  8  1  0
  8  9  1  0
  5 10  1  0
  9 10  1  0
 10 11  1  6
 11 12  1  0
 12 13  1  0
 13 14  1  0
 14 15  1  0
M  END
$$$$
13
     RDKit          3D

 15 17  0  0  0  0  0  0  0  0999 V2000
    7.8785   28.2159    7.0732 C   0  0  0  0  0  0  0  0  0  0  0  0
    8.5001   27.8669    8.2413 C   0  0  0  0  0  0  0  0  0  0  0  0
    9.2319   26.6537    8.4432 C   0  0  0  0  0  0  0  0  0  0  0  0
    9.3168   25.8826    7.3778 C   0  0  0  0  0  0  0  0  0  0  0  0
    8.8046   26.2263    6.3520 C   0  0  0  0  0  0  0  0  0  0  0  0
    8.0687   27.3349    6.0452 C   0  0  0  0  0  0  0  0  0  0  0  0
   10.1507   24.4609    7.5672 C   0  0  2  0  0  0  0  0  0  0  0  0
   11.3895   24.6904    8.0019 O   0  0  0  0  0  0  0  0  0  0  0  0
   12.3093   23.9623    7.0946 C   0  0  0  0  0  0  0  0  0  0  0  0
   11.9084   23.9248    5.7272 C   0  0  1  0  0  0  0  0  0  0  0  0
   10.0200   23.9563    6.1690 C   0  0  1  0  0  0  0  0  0  0  0  0
    8.9730   25.2182    5.1217 C   0  0  0  0  0  0  0  0  0  0  0  0
   13.1820   23.6341    4.9929 O   0  0  0  0  0  0  0  0  0  0  0  0
   10.8983   23.3129    5.5295 C   0  0  2  0  0  0  0  0  0  0  0  0
   10.7620   21.8845    5.9023 O   0  0  0  0  0  0  0  0  0  0  0  0
  1  2  1  0
  2  3  1  0
  3  4  1  0
  4  5  1  0
  1  6  1  0
  5  6  1  0
  4  7  1  0
  7  8  1  6
  8  9  1  0
  9 10  1  0
  7 11  1  0
  5 12  1  0
 11 12  1  6
 10 13  1  6
 10 14  1  0
 11 14  1  0
 14 15  1  1
M  END
$$$$
14
     RDKit          3D

 15 16  0  0  0  0  0  0  0  0999 V2000
    8.8442   27.9866    8.3990 C   0  0  0  0  0  0  0  0  0  0  0  0
    9.4652   26.8177    8.5956 C   0  0  0  0  0  0  0  0  0  0  0  0
    9.6699   25.8932    7.6090 C   0  0  0  0  0  0  0  0  0  0  0  0
    9.0616   26.1326    6.3460 C   0  0  0  0  0  0  0  0  0  0  0  0
    8.3864   27.1477    6.2410 C   0  0  0  0  0  0  0  0  0  0  0  0
    9.2862   24.9079    5.3108 C   0  0  0  0  0  0  0  0  0  0  0  0
   10.5341   24.3691    5.2177 C   0  0  0  0  0  0  0  0  0  0  0  0
   10.7589   23.5876    4.1267 N   0  0  0  0  0  0  0  0  0  0  0  0
    8.1296   28.0944    7.1915 C   0  0  0  0  0  0  0  0  0  0  0  0
   11.5343   24.2905    6.0291 O   0  0  0  0  0  0  0  0  0  0  0  0
   11.8776   22.8144    3.8440 C   0  0  0  0  0  0  0  0  0  0  0  0
    9.7718   23.3917    3.0276 C   0  0  0  0  0  0  0  0  0  0  0  0
    9.9931   22.4209    2.0563 C   0  0  0  0  0  0  0  0  0  0  0  0
   11.7534   21.9363    2.7726 C   0  0  0  0  0  0  0  0  0  0  0  0
   10.8844   21.7306    1.9259 C   0  0  0  0  0  0  0  0  0  0  0  0
  1  2  1  0
  2  3  1  0
  3  4  1  0
  4  5  1  0
  4  6  1  0
  6  7  1  0
  7  8  1  0
  1  9  1  0
  5  9  1  0
  7 10  2  0
  8 11  1  0
  8 12  1  0
 12 13  1  0
 11 14  1  0
 13 15  1  0
 14 15  1  0
M  END
$$$$
15
     RDKit          3D

 15 15  0  0  0  0  0  0  0  0999 V2000
   10.3994   21.3993    1.8015 C   0  0  0  0  0  0  0  0  0  0  0  0
    9.2140   21.8400    1.4164 C   0  0  0  0  0  0  0  0  0  0  0  0
   11.1121   22.0803    2.7853 C   0  0  0  0  0  0  0  0  0  0  0  0
   10.4441   23.1260    3.2940 C   0  0  0  0  0  0  0  0  0  0  0  0
    8.6526   23.0093    2.1737 C   0  0  0  0  0  0  0  0  0  0  0  0
    9.2609   23.6130    3.0960 C   0  0  0  0  0  0  0  0  0  0  0  0
   11.1648   23.8797    4.5153 C   0  0  1  0  0  0  0  0  0  0  0  0
   10.4909   24.0198    5.6845 C   0  0  0  0  0  0  0  0  0  0  0  0
    9.8531   22.9521    6.2156 O   0  0  0  0  0  0  0  0  0  0  0  0
   10.6010   25.0628    6.5782 N   0  0  0  0  0  0  0  0  0  0  0  0
   12.4823   23.5215    4.9521 O   0  0  0  0  0  0  0  0  0  0  0  0
    9.9786   25.4489    7.6989 C   0  0  0  0  0  0  0  0  0  0  0  0
    8.5493   25.9039    7.4726 C   0  0  0  0  0  0  0  0  0  0  0  0
    8.1772   26.8562    8.3867 C   0  0  0  0  0  0  0  0  0  0  0  0
    9.1236   27.7443    8.8266 C   0  0  0  0  0  0  0  0  0  0  0  0
  1  2  1  0
  1  3  1  0
  3  4  1  0
  2  5  1  0
  4  6  1  0
  5  6  1  0
  4  7  1  0
  7  8  1  0
  8  9  2  0
  8 10  1  0
  7 11  1  1
 10 12  1  0
 12 13  1  0
 13 14  1  0
 14 15  1  0
M  END
$$$$
16
     RDKit          3D

 16 17  0  0  0  0  0  0  0  0999 V2000
   12.4639   24.7520    3.5790 O   0  0  0  0  0  0  0  0  0  0  0  0
   11.8468   23.9788    4.0283 C   0  0  1  0  0  0  0  0  0  0  0  0
   11.1890   24.2353    5.2162 C   0  0  2  0  0  0  0  0  0  0  0  0
   10.6792   23.5342    3.1036 C   0  0  2  0  0  0  0  0  0  0  0  0
   12.0818   24.3769    6.2756 O   0  0  0  0  0  0  0  0  0  0  0  0
    9.9317   24.0635    5.5252 C   0  0  2  0  0  0  0  0  0  0  0  0
    9.4902   23.6470    4.0897 O   0  0  0  0  0  0  0  0  0  0  0  0
    9.3800   24.9074    6.2510 N   0  0  0  0  0  0  0  0  0  0  0  0
   10.6070   22.3235    2.3864 C   0  0  0  0  0  0  0  0  0  0  0  0
    9.4551   22.1949    1.5582 C   0  0  0  0  0  0  0  0  0  0  0  0
    9.2888   21.0816    0.7982 O   0  0  0  0  0  0  0  0  0  0  0  0
    8.4175   25.6640    6.1169 C   0  0  0  0  0  0  0  0  0  0  0  0
    9.9281   25.1498    7.6110 C   0  0  0  0  0  0  0  0  0  0  0  0
    9.4116   26.3495    8.2461 C   0  0  1  0  0  0  0  0  0  0  0  0
    8.2696   26.6942    7.2316 C   0  0  0  0  0  0  0  0  0  0  0  0
    8.7397   26.1362    9.3342 C   0  0  0  0  0  0  0  0  0  0  0  0
  2  1  1  6
  2  3  1  0
  2  4  1  0
  3  5  1  1
  3  6  1  0
  4  7  1  0
  6  7  1  0
  6  8  1  6
  4  9  1  1
  9 10  1  0
 10 11  1  0
  8 12  1  0
  8 13  1  0
 13 14  1  0
 12 15  1  0
 14 15  1  0
 14 16  1  1
M  END
$$$$
17
     RDKit          3D

 16 18  0  0  0  0  0  0  0  0999 V2000
    9.9939   21.3215    1.9478 C   0  0  0  0  0  0  0  0  0  0  0  0
    8.8172   21.9281    1.8069 C   0  0  0  0  0  0  0  0  0  0  0  0
    8.7951   23.1929    2.1348 C   0  0  1  0  0  0  0  0  0  0  0  0
    7.5383   24.0046    1.9530 C   0  0  0  0  0  0  0  0  0  0  0  0
    9.7411   23.7519    3.0058 C   0  0  1  0  0  0  0  0  0  0  0  0
    6.4912   23.7562    1.5723 O   0  0  0  0  0  0  0  0  0  0  0  0
    7.6512   25.4715    2.5099 N   0  0  0  0  0  0  0  0  0  0  0  0
   10.7949   22.9820    3.0393 C   0  0  2  0  0  0  0  0  0  0  0  0
    8.6811   25.8279    3.1834 C   0  0  1  0  0  0  0  0  0  0  0  0
    8.5148   27.1132    3.6693 N   0  0  0  0  0  0  0  0  0  0  0  0
    9.7211   24.9914    3.4644 N   0  0  0  0  0  0  0  0  0  0  0  0
   11.0838   21.8416    2.5543 C   0  0  0  0  0  0  0  0  0  0  0  0
   11.7124   23.7849    4.0919 C   0  0  2  0  0  0  0  0  0  0  0  0
   10.8607   24.9725    4.3797 C   0  0  0  0  0  0  0  0  0  0  0  0
   12.9856   23.5750    4.6213 C   0  0  0  0  0  0  0  0  0  0  0  0
   11.1346   25.8300    5.4439 O   0  0  0  0  0  0  0  0  0  0  0  0
  1  2  1  0
  3  2  1  1
  3  4  1  0
  3  5  1  0
  4  6  2  0
  4  7  1  0
  5  8  1  0
  7  9  1  0
  9 10  1  1
  5 11  1  6
  9 11  1  0
  1 12  1  0
  8 12  1  1
  8 13  1  0
 11 14  1  0
 13 14  1  0
 13 15  1  6
 14 16  2  0
M  END
$$$$
18
     RDKit          3D

 16 18  0  0  0  0  0  0  0  0999 V2000
   10.0826   21.2541    1.3025 N   0  0  0  0  0  0  0  0  0  0  0  0
    9.7173   22.1639    1.6842 C   0  0  0  0  0  0  0  0  0  0  0  0
    9.7422   23.2106    2.7012 C   0  0  1  0  0  0  0  0  0  0  0  0
    8.6631   23.8596    3.0582 C   0  0  1  0  0  0  0  0  0  0  0  0
   11.0362   23.3963    3.3758 C   0  0  0  0  0  0  0  0  0  0  0  0
    8.7461   24.8280    3.9041 C   0  0  2  0  0  0  0  0  0  0  0  0
   12.2496   22.7058    3.0517 C   0  0  0  0  0  0  0  0  0  0  0  0
    7.4153   23.8662    2.0927 C   0  0  0  0  0  0  0  0  0  0  0  0
   10.9992   24.3688    4.4933 C   0  0  2  0  0  0  0  0  0  0  0  0
    9.7095   25.0515    4.5616 C   0  0  2  0  0  0  0  0  0  0  0  0
    9.6986   25.8083    5.8638 N   0  0  0  0  0  0  0  0  0  0  0  0
    7.2885   25.3000    3.9160 N   0  0  0  0  0  0  0  0  0  0  0  0
    6.6100   24.8013    2.8575 C   0  0  0  0  0  0  0  0  0  0  0  0
   12.0829   24.6809    5.2753 C   0  0  0  0  0  0  0  0  0  0  0  0
   10.6844   25.8577    6.6582 C   0  0  0  0  0  0  0  0  0  0  0  0
   11.8970   25.3374    6.3722 C   0  0  0  0  0  0  0  0  0  0  0  0
  1  2  3  0
  3  2  1  1
  3  4  1  0
  3  5  1  0
  4  6  1  0
  5  7  1  0
  4  8  1  6
  5  9  1  0
  6 10  1  0
  9 10  1  0
 10 11  1  1
  6 12  1  1
  8 13  1  0
 12 13  1  0
  9 14  1  6
 11 15  1  0
 14 16  1  0
 15 16  1  0
M  END
$$$$
19
     RDKit          3D

 16 16  0  0  0  0  0  0  0  0999 V2000
   10.3994   21.3993    1.8015 C   0  0  0  0  0  0  0  0  0  0  0  0
    9.2140   21.8400    1.4164 C   0  0  0  0  0  0  0  0  0  0  0  0
   11.1121   22.0803    2.7853 C   0  0  0  0  0  0  0  0  0  0  0  0
   10.4441   23.1260    3.2940 C   0  0  0  0  0  0  0  0  0  0  0  0
    8.6526   23.0093    2.1737 C   0  0  0  0  0  0  0  0  0  0  0  0
    9.2609   23.6130    3.0960 C   0  0  0  0  0  0  0  0  0  0  0  0
   11.1648   23.8797    4.5153 C   0  0  1  0  0  0  0  0  0  0  0  0
   10.4909   24.0198    5.6845 C   0  0  0  0  0  0  0  0  0  0  0  0
    9.8531   22.9521    6.2156 O   0  0  0  0  0  0  0  0  0  0  0  0
   10.6010   25.0628    6.5782 N   0  0  0  0  0  0  0  0  0  0  0  0
   12.4823   23.5215    4.9521 O   0  0  0  0  0  0  0  0  0  0  0  0
    9.9786   25.4489    7.6989 C   0  0  0  0  0  0  0  0  0  0  0  0
    8.5493   25.9039    7.4726 C   0  0  0  0  0  0  0  0  0  0  0  0
    8.1772   26.8562    8.3867 C   0  0  0  0  0  0  0  0  0  0  0  0
    6.8946   27.3111    8.3259 N   0  0  0  0  0  0  0  0  0  0  0  0
    8.9312   27.3762    9.2921 O   0  0  0  0  0  0  0  0  0  0  0  0
  1  2  1  0
  1  3  1  0
  3  4  1  0
  2  5  1  0
  4  6  1  0
  5  6  1  0
  4  7  1  0
  7  8  1  0
  8  9  2  0
  8 10  1  0
  7 11  1  1
 10 12  1  0
 12 13  1  0
 13 14  1  0
 14 15  1  0
 14 16  2  0
M  END
$$$$
2
     RDKit          3D

 12 13  0  0  0  0  0  0  0  0999 V2000
   10.1015   21.4335    1.5568 C   0  0  0  0  0  0  0  0  0  0  0  0
    9.0756   22.2549    1.4200 C   0  0  0  0  0  0  0  0  0  0  0  0
    8.9463   23.3982    2.3016 C   0  0  0  0  0  0  0  0  0  0  0  0
   11.0882   21.8436    2.4277 C   0  0  0  0  0  0  0  0  0  0  0  0
   10.9794   22.8958    3.2979 C   0  0  0  0  0  0  0  0  0  0  0  0
    9.8742   23.7096    3.2165 C   0  0  0  0  0  0  0  0  0  0  0  0
   11.9033   23.2979    4.3656 C   0  0  0  0  0  0  0  0  0  0  0  0
   11.9002   24.3921    4.9410 C   0  0  1  0  0  0  0  0  0  0  0  0
    9.7555   24.8919    4.0632 C   0  0  0  0  0  0  0  0  0  0  0  0
   10.7036   25.1767    4.9517 N   0  0  0  0  0  0  0  0  0  0  0  0
   12.6321   24.6004    6.1028 O   0  0  0  0  0  0  0  0  0  0  0  0
   11.9521   24.3915    7.3208 C   0  0  0  0  0  0  0  0  0  0  0  0
  1  2  1  0
  2  3  1  0
  1  4  1  0
  4  5  1  0
  3  6  1  0
  5  6  1  0
  5  7  1  0
  7  8  1  0
  6  9  1  0
  8 10  1  0
  9 10  1  0
  8 11  1  1
 11 12  1  0
M  END
$$$$
20
     RDKit          3D

 16 17  0  0  0  0  0  0  0  0999 V2000
    8.2898   22.7720    2.1253 C   0  0  0  0  0  0  0  0  0  0  0  0
    8.5218   23.9739    2.6615 C   0  0  0  0  0  0  0  0  0  0  0  0
    9.3983   21.8737    2.0493 C   0  0  0  0  0  0  0  0  0  0  0  0
    9.7523   24.3320    3.2336 C   0  0  2  0  0  0  0  0  0  0  0  0
    9.9872   25.6566    3.7901 N   0  0  0  0  0  0  0  0  0  0  0  0
   10.6265   25.6384    5.0159 C   0  0  2  0  0  0  0  0  0  0  0  0
   11.7018   24.8272    5.1528 C   0  0  1  0  0  0  0  0  0  0  0  0
   10.8361   23.3561    3.2121 C   0  0  2  0  0  0  0  0  0  0  0  0
   10.1166   26.3120    5.9013 N   0  0  0  0  0  0  0  0  0  0  0  0
   12.5164   25.0671    6.2950 N   0  0  0  0  0  0  0  0  0  0  0  0
    8.8689   26.8735    6.0277 C   0  0  0  0  0  0  0  0  0  0  0  0
    8.5543   27.5079    7.2852 C   0  0  0  0  0  0  0  0  0  0  0  0
    7.6036   26.8241    8.0839 C   0  0  0  0  0  0  0  0  0  0  0  0
   10.6218   22.1902    2.6281 C   0  0  0  0  0  0  0  0  0  0  0  0
   11.8129   23.6717    4.2735 C   0  0  0  0  0  0  0  0  0  0  0  0
    8.0729   25.9508    9.0849 C   0  0  0  0  0  0  0  0  0  0  0  0
  1  2  1  0
  1  3  1  0
  4  2  1  6
  4  5  1  0
  5  6  1  0
  6  7  1  0
  4  8  1  0
  6  9  1  1
  7 10  1  1
  9 11  1  0
 11 12  1  0
 12 13  1  0
  3 14  1  0
  8 14  1  1
  7 15  1  0
  8 15  1  0
 13 16  1  0
M  END
$$$$
21
     RDKit          3D

 16 17  0  0  0  0  0  0  0  0999 V2000
    8.8442   27.9866    8.3990 C   0  0  0  0  0  0  0  0  0  0  0  0
    8.3862   27.7454    7.2005 C   0  0  0  0  0  0  0  0  0  0  0  0
    8.7989   26.4306    6.5638 C   0  0  0  0  0  0  0  0  0  0  0  0
    9.5216   26.7657    9.0399 C   0  0  0  0  0  0  0  0  0  0  0  0
    9.7883   25.7136    8.2595 C   0  0  0  0  0  0  0  0  0  0  0  0
    9.4207   25.5619    7.2003 C   0  0  0  0  0  0  0  0  0  0  0  0
    9.6377   24.3796    6.2810 C   0  0  0  0  0  0  0  0  0  0  0  0
    9.5500   24.2747    5.0689 N   0  0  0  0  0  0  0  0  0  0  0  0
   10.8011   23.5713    6.8330 O   0  0  0  0  0  0  0  0  0  0  0  0
   10.1349   23.1490    4.2452 C   0  0  0  0  0  0  0  0  0  0  0  0
    9.5183   22.9780    3.0359 C   0  0  0  0  0  0  0  0  0  0  0  0
    8.9028   24.0374    2.4109 C   0  0  0  0  0  0  0  0  0  0  0  0
    9.7592   21.6522    2.2990 C   0  0  0  0  0  0  0  0  0  0  0  0
    8.2656   23.6971    1.1093 C   0  0  0  0  0  0  0  0  0  0  0  0
    8.5349   22.3474    0.8131 N   0  0  0  0  0  0  0  0  0  0  0  0
    9.1805   21.4636    1.2795 C   0  0  0  0  0  0  0  0  0  0  0  0
  1  2  1  0
  2  3  1  0
  1  4  1  0
  4  5  1  0
  3  6  1  0
  5  6  1  0
  6  7  1  0
  7  8  1  0
  7  9  2  0
  8 10  1  0
 10 11  1  0
 11 12  1  0
 11 13  1  0
 12 14  1  0
 14 15  1  0
 13 16  1  0
 15 16  1  0
M  END
$$$$
22
     RDKit          3D

 16 18  0  0  0  0  0  0  0  0999 V2000
    8.7939   22.3806    1.4719 C   0  0  0  0  0  0  0  0  0  0  0  0
    8.6966   23.5101    2.1474 C   0  0  1  0  0  0  0  0  0  0  0  0
    9.9833   21.7085    1.7092 C   0  0  0  0  0  0  0  0  0  0  0  0
    9.6644   23.8161    2.9159 C   0  0  2  0  0  0  0  0  0  0  0  0
   10.9263   21.9607    2.4973 C   0  0  0  0  0  0  0  0  0  0  0  0
   10.7986   23.1331    3.2129 C   0  0  0  0  0  0  0  0  0  0  0  0
   11.9434   23.5825    4.2651 C   0  0  0  0  0  0  0  0  0  0  0  0
   12.0622   24.8951    4.4306 N   0  0  0  0  0  0  0  0  0  0  0  0
   13.3081   25.2951    4.3690 O   0  0  0  0  0  0  0  0  0  0  0  0
   11.1618   25.6318    5.0764 C   0  0  0  0  0  0  0  0  0  0  0  0
    9.7844   25.0682    5.0307 C   0  0  0  0  0  0  0  0  0  0  0  0
    9.4360   25.1507    3.7648 N   0  0  0  0  0  0  0  0  0  0  0  0
    9.0182   24.8774    6.0830 O   0  0  0  0  0  0  0  0  0  0  0  0
   11.4147   26.3597    6.1633 O   0  0  0  0  0  0  0  0  0  0  0  0
    8.0088   25.6215    3.3779 C   0  0  0  0  0  0  0  0  0  0  0  0
    7.7779   24.6873    2.1331 C   0  0  0  0  0  0  0  0  0  0  0  0
  2  1  1  6
  1  3  1  0
  2  4  1  0
  3  5  1  0
  4  6  1  1
  5  6  1  0
  6  7  1  0
  7  8  1  0
  8  9  1  0
  8 10  1  0
 10 11  1  0
  4 12  1  0
 11 12  1  0
 11 13  2  0
 10 14  2  0
 12 15  1  0
  2 16  1  0
 15 16  1  0
M  END
$$$$
23
     RDKit          3D

 17 18  0  0  0  0  0  0  0  0999 V2000
   12.4639   24.7520    3.5790 O   0  0  0  0  0  0  0  0  0  0  0  0
   11.8468   23.9788    4.0283 C   0  0  1  0  0  0  0  0  0  0  0  0
   11.1890   24.2353    5.2162 C   0  0  2  0  0  0  0  0  0  0  0  0
   10.6792   23.5342    3.1036 C   0  0  2  0  0  0  0  0  0  0  0  0
   12.0818   24.3769    6.2756 O   0  0  0  0  0  0  0  0  0  0  0  0
    9.9317   24.0635    5.5252 C   0  0  2  0  0  0  0  0  0  0  0  0
    9.4902   23.6470    4.0897 O   0  0  0  0  0  0  0  0  0  0  0  0
    9.3800   24.9074    6.2510 N   0  0  0  0  0  0  0  0  0  0  0  0
   10.6070   22.3235    2.3864 C   0  0  0  0  0  0  0  0  0  0  0  0
    9.4551   22.1949    1.5582 C   0  0  0  0  0  0  0  0  0  0  0  0
    9.2888   21.0816    0.7982 O   0  0  0  0  0  0  0  0  0  0  0  0
    8.4175   25.6640    6.1169 C   0  0  0  0  0  0  0  0  0  0  0  0
    9.9281   25.1498    7.6110 C   0  0  0  0  0  0  0  0  0  0  0  0
    8.2339   26.6669    7.2616 C   0  0  2  0  0  0  0  0  0  0  0  0
    9.2058   25.9737    8.1500 C   0  0  2  0  0  0  0  0  0  0  0  0
    9.9566   27.2038    8.8495 O   0  0  0  0  0  0  0  0  0  0  0  0
    6.9830   26.9170    7.9206 O   0  0  0  0  0  0  0  0  0  0  0  0
  2  1  1  6
  2  3  1  0
  2  4  1  0
  3  5  1  1
  3  6  1  0
  4  7  1  0
  6  7  1  0
  6  8  1  6
  4  9  1  1
  9 10  1  0
 10 11  1  0
  8 12  1  0
  8 13  1  0
 12 14  1  0
 13 15  1  0
 14 15  1  0
 15 16  1  6
 14 17  1  1
M  END
$$$$
24
     RDKit          3D

 17 18  0  0  0  0  0  0  0  0999 V2000
    7.6235   28.1098    7.8805 N   0  0  0  0  0  0  0  0  0  0  0  0
    8.7563   27.5902    8.4482 C   0  0  0  0  0  0  0  0  0  0  0  0
    7.2671   27.5450    6.7347 C   0  0  0  0  0  0  0  0  0  0  0  0
    9.4453   26.5172    7.9842 C   0  0  0  0  0  0  0  0  0  0  0  0
    7.9301   26.6109    6.2767 N   0  0  0  0  0  0  0  0  0  0  0  0
    8.9986   26.0311    6.9495 C   0  0  1  0  0  0  0  0  0  0  0  0
    9.6573   24.9359    6.2158 C   0  0  2  0  0  0  0  0  0  0  0  0
   10.8749   24.6672    6.4633 C   0  0  0  0  0  0  0  0  0  0  0  0
    9.0189   24.2023    5.1102 C   0  0  0  0  0  0  0  0  0  0  0  0
    9.7141   23.2857    4.4758 C   0  0  0  0  0  0  0  0  0  0  0  0
   11.6412   23.6532    5.8643 C   0  0  0  0  0  0  0  0  0  0  0  0
    9.1594   22.5636    3.3877 O   0  0  0  0  0  0  0  0  0  0  0  0
    8.7853   23.2238    2.2829 C   0  0  0  0  0  0  0  0  0  0  0  0
   11.0923   22.9728    4.8735 C   0  0  0  0  0  0  0  0  0  0  0  0
    7.7105   23.6857    2.2488 F   0  0  0  0  0  0  0  0  0  0  0  0
    9.7078   24.4267    2.0374 F   0  0  0  0  0  0  0  0  0  0  0  0
    9.0730   22.2678    1.2065 F   0  0  0  0  0  0  0  0  0  0  0  0
  1  2  1  0
  1  3  1  0
  2  4  1  0
  3  5  1  0
  6  4  1  6
  5  6  1  0
  6  7  1  0
  7  8  1  6
  7  9  1  0
  9 10  1  0
  8 11  1  0
 10 12  1  0
 12 13  1  0
 10 14  1  0
 11 14  1  0
 13 15  1  0
 13 16  1  0
 13 17  1  0
M  END
$$$$
25
     RDKit          3D

 17 18  0  0  0  0  0  0  0  0999 V2000
   12.6384   25.1390    4.0368 N   0  0  0  0  0  0  0  0  0  0  0  0
   12.4540   24.8985    5.1670 C   0  0  0  0  0  0  0  0  0  0  0  0
   11.7105   23.8808    5.5368 N   0  0  0  0  0  0  0  0  0  0  0  0
   11.4119   23.1311    4.3750 C   0  0  2  0  0  0  0  0  0  0  0  0
   11.8636   24.0605    3.2432 C   0  0  1  0  0  0  0  0  0  0  0  0
   10.6338   22.0085    4.2095 C   0  0  0  0  0  0  0  0  0  0  0  0
   11.4105   23.4270    6.9083 C   0  0  0  0  0  0  0  0  0  0  0  0
   10.1449   21.8770    2.8693 C   0  0  0  0  0  0  0  0  0  0  0  0
   10.7800   24.3358    7.5611 C   0  0  0  0  0  0  0  0  0  0  0  0
   11.4195   23.7746    1.9991 C   0  0  0  0  0  0  0  0  0  0  0  0
    9.2315   20.8102    2.5414 F   0  0  0  0  0  0  0  0  0  0  0  0
    9.3886   24.7542    7.2882 C   0  0  0  0  0  0  0  0  0  0  0  0
    9.1435   26.2105    7.4479 C   0  0  0  0  0  0  0  0  0  0  0  0
    8.1918   26.6601    6.6522 C   0  0  0  0  0  0  0  0  0  0  0  0
   10.4808   22.7288    1.7722 C   0  0  0  0  0  0  0  0  0  0  0  0
    7.4382   27.9135    7.0951 C   0  0  0  0  0  0  0  0  0  0  0  0
    8.0637   28.5272    8.1528 O   0  0  0  0  0  0  0  0  0  0  0  0
  1  2  1  0
  2  3  1  0
  3  4  1  0
  1  5  1  0
  4  5  1  0
  4  6  1  6
  3  7  1  0
  6  8  1  0
  7  9  1  0
  5 10  1  1
  8 11  1  0
  9 12  1  0
 12 13  1  0
 13 14  1  0
  8 15  1  0
 10 15  1  0
 14 16  1  0
 16 17  1  0
M  END
$$$$
26
     RDKit          3D

 17 19  0  0  0  0  0  0  0  0999 V2000
    7.8785   28.2159    7.0732 C   0  0  0  0  0  0  0  0  0  0  0  0
    8.5001   27.8669    8.2413 C   0  0  0  0  0  0  0  0  0  0  0  0
    9.2319   26.6537    8.4432 C   0  0  0  0  0  0  0  0  0  0  0  0
    9.3168   25.8826    7.3778 C   0  0  1  0  0  0  0  0  0  0  0  0
    8.8046   26.2263    6.3520 C   0  0  2  0  0  0  0  0  0  0  0  0
    8.0687   27.3349    6.0452 C   0  0  0  0  0  0  0  0  0  0  0  0
    8.9787   25.1449    5.3090 C   0  0  1  0  0  0  0  0  0  0  0  0
    9.8122   24.1560    5.7331 C   0  0  0  0  0  0  0  0  0  0  0  0
   10.1500   24.6420    7.5657 S   0  0  0  0  0  0  0  0  0  0  0  0
    8.3559   24.9266    4.0549 C   0  0  0  0  0  0  0  0  0  0  0  0
    8.7510   23.9828    3.1398 C   0  0  0  0  0  0  0  0  0  0  0  0
   10.2724   23.0782    5.0025 C   0  0  0  0  0  0  0  0  0  0  0  0
    9.8935   23.0275    3.7768 C   0  0  1  0  0  0  0  0  0  0  0  0
   10.3834   21.7265    2.6755 S   0  0  2  0  0  0  0  0  0  0  0  0
   11.5005   21.3213    3.1260 O   0  0  0  0  0  0  0  0  0  0  0  0
   10.3943   22.4182    1.2368 N   0  0  0  0  0  0  0  0  0  0  0  0
    9.2514   20.7356    2.6325 O   0  0  0  0  0  0  0  0  0  0  0  0
  1  2  1  0
  2  3  1  0
  4  3  1  6
  4  5  1  0
  1  6  1  0
  5  6  1  1
  5  7  1  0
  7  8  1  0
  4  9  1  0
  8  9  1  0
  7 10  1  1
 10 11  1  0
  8 12  1  0
 13 11  1  1
 12 13  1  0
 13 14  1  0
 14 15  2  0
 14 16  2  0
 14 17  1  6
M  END
$$$$
27
     RDKit          3D

 17 19  0  0  0  0  0  0  0  0999 V2000
    7.6235   28.1098    7.8805 N   0  0  0  0  0  0  0  0  0  0  0  0
    8.7563   27.5902    8.4482 C   0  0  0  0  0  0  0  0  0  0  0  0
    7.2671   27.5450    6.7347 C   0  0  0  0  0  0  0  0  0  0  0  0
    9.4453   26.5172    7.9842 C   0  0  1  0  0  0  0  0  0  0  0  0
    7.9301   26.6109    6.2767 N   0  0  0  0  0  0  0  0  0  0  0  0
    8.9986   26.0311    6.9495 C   0  0  1  0  0  0  0  0  0  0  0  0
    9.6573   24.9359    6.2158 C   0  0  2  0  0  0  0  0  0  0  0  0
   10.8749   24.6672    6.4633 C   0  0  1  0  0  0  0  0  0  0  0  0
    9.0189   24.2023    5.1102 C   0  0  0  0  0  0  0  0  0  0  0  0
    9.7141   23.2857    4.4758 C   0  0  2  0  0  0  0  0  0  0  0  0
   11.6828   25.3213    7.6217 C   0  0  0  0  0  0  0  0  0  0  0  0
   11.6283   23.5653    6.0008 C   0  0  0  0  0  0  0  0  0  0  0  0
   10.6551   26.0032    8.5887 C   0  0  0  0  0  0  0  0  0  0  0  0
    9.2323   22.5624    3.3724 O   0  0  0  0  0  0  0  0  0  0  0  0
   10.0237   22.0199    2.4500 C   0  0  0  0  0  0  0  0  0  0  0  0
   11.0454   22.8830    4.9999 C   0  0  0  0  0  0  0  0  0  0  0  0
    9.3545   22.0021    1.2253 C   0  0  0  0  0  0  0  0  0  0  0  0
  1  2  1  0
  1  3  1  0
  4  2  1  6
  3  5  1  0
  4  6  1  0
  6  5  1  6
  6  7  1  0
  7  8  1  0
  7  9  1  6
  9 10  1  0
  8 11  1  1
  8 12  1  0
  4 13  1  0
 11 13  1  0
 10 14  1  1
 14 15  1  0
 10 16  1  0
 12 16  1  0
 15 17  1  0
M  END
$$$$
28
     RDKit          3D

 17 19  0  0  0  0  0  0  0  0999 V2000
    8.5110   28.1300    8.5661 C   0  0  0  0  0  0  0  0  0  0  0  0
    9.4351   27.3003    8.9591 C   0  0  0  0  0  0  0  0  0  0  0  0
    7.7703   27.9883    7.3903 C   0  0  0  0  0  0  0  0  0  0  0  0
    8.2037   26.7601    6.7645 C   0  0  0  0  0  0  0  0  0  0  0  0
    9.2167   26.0354    7.1715 C   0  0  0  0  0  0  0  0  0  0  0  0
    9.7405   26.2274    8.1740 C   0  0  0  0  0  0  0  0  0  0  0  0
    9.4385   24.8190    6.2288 C   0  0  1  0  0  0  0  0  0  0  0  0
    9.0651   24.8737    5.0344 C   0  0  0  0  0  0  0  0  0  0  0  0
   10.9185   24.5194    6.5147 O   0  0  0  0  0  0  0  0  0  0  0  0
   11.6753   24.5886    5.5086 C   0  0  1  0  0  0  0  0  0  0  0  0
    9.9422   24.0836    4.0713 C   0  0  2  0  0  0  0  0  0  0  0  0
   13.0901   24.4816    5.9537 N   0  0  0  0  0  0  0  0  0  0  0  0
   11.3610   24.2698    4.2375 C   0  0  2  0  0  0  0  0  0  0  0  0
   12.2988   23.9998    3.1782 C   0  0  0  0  0  0  0  0  0  0  0  0
   11.6958   23.5144    1.9307 C   0  0  0  0  0  0  0  0  0  0  0  0
   10.1943   23.3557    1.8510 C   0  0  0  0  0  0  0  0  0  0  0  0
    9.4465   23.4833    2.9282 C   0  0  0  0  0  0  0  0  0  0  0  0
  1  2  1  0
  1  3  1  0
  3  4  1  0
  4  5  1  0
  2  6  1  0
  5  6  1  0
  7  5  1  6
  7  8  1  0
  7  9  1  0
  9 10  1  0
 11  8  1  6
 10 12  1  1
 10 13  1  0
 11 13  1  0
 13 14  1  1
 14 15  1  0
 15 16  1  0
 11 17  1  0
 16 17  1  0
M  END
$$$$
29
     RDKit          3D

 17 19  0  0  0  0  0  0  0  0999 V2000
   10.6763   21.3719    1.6502 C   0  0  0  0  0  0  0  0  0  0  0  0
   10.9495   22.1730    2.6777 C   0  0  0  0  0  0  0  0  0  0  0  0
   11.9224   21.9995    3.4737 C   0  0  0  0  0  0  0  0  0  0  0  0
   12.0648   22.6815    4.7748 C   0  0  1  0  0  0  0  0  0  0  0  0
    9.9729   23.3081    2.8205 C   0  0  0  0  0  0  0  0  0  0  0  0
    8.8214   23.4668    1.9998 C   0  0  0  0  0  0  0  0  0  0  0  0
    9.4875   21.4732    0.8541 C   0  0  0  0  0  0  0  0  0  0  0  0
    7.9551   24.5599    2.1689 C   0  0  0  0  0  0  0  0  0  0  0  0
   13.1896   22.5051    5.5985 O   0  0  0  0  0  0  0  0  0  0  0  0
    8.6035   22.5128    1.1257 C   0  0  0  0  0  0  0  0  0  0  0  0
   10.1549   24.3980    3.8571 C   0  0  0  0  0  0  0  0  0  0  0  0
    6.9455   24.8244    1.3261 O   0  0  0  0  0  0  0  0  0  0  0  0
    6.2540   25.8739    1.3827 C   0  0  0  0  0  0  0  0  0  0  0  0
   11.6465   24.2185    4.6056 C   0  0  2  0  0  0  0  0  0  0  0  0
    8.2409   25.3770    3.2929 C   0  0  0  0  0  0  0  0  0  0  0  0
   12.6973   24.7991    3.8105 O   0  0  0  0  0  0  0  0  0  0  0  0
    9.3519   25.3428    4.2251 C   0  0  0  0  0  0  0  0  0  0  0  0
  1  2  1  0
  2  3  1  0
  3  4  1  0
  2  5  1  0
  5  6  1  0
  1  7  1  0
  6  8  1  0
  4  9  1  6
  6 10  1  0
  7 10  1  0
  5 11  1  0
  8 12  1  0
 12 13  1  0
  4 14  1  0
 11 14  1  0
  8 15  1  0
 14 16  1  6
 11 17  1  0
 15 17  1  0
M  END
$$$$
3
     RDKit          3D

 13 14  0  0  0  0  0  0  0  0999 V2000
   10.6763   21.3719    1.6502 C   0  0  0  0  0  0  0  0  0  0  0  0
   10.9495   22.1730    2.6777 C   0  0  0  0  0  0  0  0  0  0  0  0
   11.9224   21.9995    3.4737 C   0  0  0  0  0  0  0  0  0  0  0  0
   12.0648   22.6815    4.7748 C   0  0  0  0  0  0  0  0  0  0  0  0
    9.9729   23.3081    2.8205 C   0  0  1  0  0  0  0  0  0  0  0  0
    8.8214   23.4668    1.9998 C   0  0  0  0  0  0  0  0  0  0  0  0
    9.4875   21.4732    0.8541 C   0  0  0  0  0  0  0  0  0  0  0  0
    8.6420   22.5032    1.0528 C   0  0  0  0  0  0  0  0  0  0  0  0
   10.2983   24.2510    3.9819 C   0  0  0  0  0  0  0  0  0  0  0  0
   11.2941   23.9140    4.8458 C   0  0  1  0  0  0  0  0  0  0  0  0
   11.5167   24.7463    6.0958 C   0  0  0  0  0  0  0  0  0  0  0  0
   11.2679   24.5820    7.1875 O   0  0  0  0  0  0  0  0  0  0  0  0
   11.7579   26.0740    5.6980 O   0  0  0  0  0  0  0  0  0  0  0  0
  1  2  1  0
  2  3  1  0
  3  4  1  0
  2  5  1  0
  5  6  1  1
  1  7  1  0
  6  8  1  0
  7  8  1  0
  5  9  1  0
  4 10  1  0
  9 10  1  0
 10 11  1  1
 11 12  2  0
 11 13  1  0
M  END
$$$$
30
     RDKit          3D

 17 18  0  0  0  0  0  0  0  0999 V2000
    8.2898   22.7720    2.1253 C   0  0  0  0  0  0  0  0  0  0  0  0
    8.5218   23.9739    2.6615 C   0  0  0  0  0  0  0  0  0  0  0  0
    9.3983   21.8737    2.0493 C   0  0  0  0  0  0  0  0  0  0  0  0
    9.7523   24.3320    3.2336 C   0  0  2  0  0  0  0  0  0  0  0  0
    9.9872   25.6566    3.7901 N   0  0  0  0  0  0  0  0  0  0  0  0
   10.6265   25.6384    5.0159 C   0  0  2  0  0  0  0  0  0  0  0  0
   11.7018   24.8272    5.1528 C   0  0  1  0  0  0  0  0  0  0  0  0
   10.8361   23.3561    3.2121 C   0  0  1  0  0  0  0  0  0  0  0  0
   10.1166   26.3120    5.9013 N   0  0  0  0  0  0  0  0  0  0  0  0
   12.5164   25.0671    6.2950 N   0  0  0  0  0  0  0  0  0  0  0  0
    8.8689   26.8735    6.0277 C   0  0  0  0  0  0  0  0  0  0  0  0
    8.5543   27.5079    7.2852 C   0  0  0  0  0  0  0  0  0  0  0  0
    7.6036   26.8241    8.0839 C   0  0  2  0  0  0  0  0  0  0  0  0
   11.8056   23.6662    4.2795 C   0  0  0  0  0  0  0  0  0  0  0  0
    8.0420   25.7708    8.8294 C   0  0  0  0  0  0  0  0  0  0  0  0
   10.5976   22.1623    2.6939 C   0  0  0  0  0  0  0  0  0  0  0  0
    6.3028   27.2308    7.9637 O   0  0  0  0  0  0  0  0  0  0  0  0
  1  2  1  0
  1  3  1  0
  4  2  1  6
  4  5  1  0
  5  6  1  0
  6  7  1  0
  4  8  1  0
  6  9  1  1
  7 10  1  1
  9 11  1  0
 11 12  1  0
 12 13  1  0
  7 14  1  0
  8 14  1  1
 13 15  1  6
  3 16  1  0
  8 16  1  0
 13 17  1  0
M  END
$$$$
31
     RDKit          3D

 17 18  0  0  0  0  0  0  0  0999 V2000
   10.1015   21.4335    1.5568 C   0  0  0  0  0  0  0  0  0  0  0  0
   10.4964   22.0851    2.5651 C   0  0  0  0  0  0  0  0  0  0  0  0
    9.8724   23.2586    3.1328 C   0  0  0  0  0  0  0  0  0  0  0  0
    8.8120   21.8883    1.0754 C   0  0  0  0  0  0  0  0  0  0  0  0
    8.2763   23.1072    1.7948 C   0  0  0  0  0  0  0  0  0  0  0  0
    8.8081   23.7191    2.7710 C   0  0  0  0  0  0  0  0  0  0  0  0
   10.7066   23.9164    4.3986 C   0  0  1  0  0  0  0  0  0  0  0  0
   11.9767   24.2515    4.2280 C   0  0  0  0  0  0  0  0  0  0  0  0
   10.0347   24.3639    5.3466 C   0  0  0  0  0  0  0  0  0  0  0  0
   10.5037   24.9244    6.4605 C   0  0  0  0  0  0  0  0  0  0  0  0
   11.9552   25.2942    6.4229 C   0  0  0  0  0  0  0  0  0  0  0  0
   10.1291   25.3844    7.7353 C   0  0  0  0  0  0  0  0  0  0  0  0
    9.9901   26.6782    8.0944 O   0  0  0  0  0  0  0  0  0  0  0  0
    8.7326   27.2177    8.4478 C   0  0  0  0  0  0  0  0  0  0  0  0
   12.6209   24.9169    5.2856 C   0  0  0  0  0  0  0  0  0  0  0  0
    7.8381   26.3857    8.8245 C   0  0  0  0  0  0  0  0  0  0  0  0
    8.3939   28.2600    7.4261 C   0  0  0  0  0  0  0  0  0  0  0  0
  1  2  1  0
  2  3  1  0
  1  4  1  0
  4  5  1  0
  3  6  1  0
  5  6  1  0
  7  3  1  6
  7  8  1  0
  7  9  1  0
  9 10  1  0
 10 11  1  0
 10 12  1  0
 12 13  1  0
 13 14  1  0
  8 15  1  0
 11 15  1  0
 14 16  1  0
 14 17  1  0
M  END
$$$$
32
     RDKit          3D

 17 18  0  0  0  0  0  0  0  0999 V2000
    7.6235   28.1098    7.8805 N   0  0  0  0  0  0  0  0  0  0  0  0
    8.7563   27.5902    8.4482 C   0  0  0  0  0  0  0  0  0  0  0  0
    7.2671   27.5450    6.7347 C   0  0  0  0  0  0  0  0  0  0  0  0
    9.4453   26.5172    7.9842 C   0  0  0  0  0  0  0  0  0  0  0  0
    7.9301   26.6109    6.2767 N   0  0  0  0  0  0  0  0  0  0  0  0
    8.9986   26.0311    6.9495 C   0  0  1  0  0  0  0  0  0  0  0  0
    9.6573   24.9359    6.2158 C   0  0  2  0  0  0  0  0  0  0  0  0
   10.8749   24.6672    6.4633 C   0  0  0  0  0  0  0  0  0  0  0  0
    9.0189   24.2023    5.1102 C   0  0  0  0  0  0  0  0  0  0  0  0
    9.7141   23.2857    4.4758 C   0  0  0  0  0  0  0  0  0  0  0  0
   11.6412   23.6532    5.8643 C   0  0  0  0  0  0  0  0  0  0  0  0
    9.1594   22.5636    3.3877 O   0  0  0  0  0  0  0  0  0  0  0  0
    8.7853   23.2238    2.2829 C   0  0  2  0  0  0  0  0  0  0  0  0
   11.0923   22.9728    4.8735 C   0  0  0  0  0  0  0  0  0  0  0  0
    7.7105   23.6857    2.2488 C   0  0  0  0  0  0  0  0  0  0  0  0
    9.4266   22.2675    1.3446 C   0  0  0  0  0  0  0  0  0  0  0  0
   10.7393   21.8951    1.4478 O   0  0  0  0  0  0  0  0  0  0  0  0
  1  2  1  0
  1  3  1  0
  2  4  1  0
  3  5  1  0
  6  4  1  6
  5  6  1  0
  6  7  1  0
  7  8  1  6
  7  9  1  0
  9 10  1  0
  8 11  1  0
 10 12  1  0
 12 13  1  0
 10 14  1  0
 11 14  1  0
 13 15  1  6
 13 16  1  0
 16 17  1  0
M  END
$$$$
33
     RDKit          3D

 17 18  0  0  0  0  0  0  0  0999 V2000
    8.7965   22.1129    1.8528 C   0  0  0  0  0  0  0  0  0  0  0  0
    9.8574   21.5603    2.2234 C   0  0  0  0  0  0  0  0  0  0  0  0
    8.8802   23.4877    2.2044 C   0  0  0  0  0  0  0  0  0  0  0  0
    9.7801   23.8495    2.8783 C   0  0  2  0  0  0  0  0  0  0  0  0
   10.9529   23.2087    3.3375 C   0  0  0  0  0  0  0  0  0  0  0  0
    9.7524   25.2742    3.6943 C   0  0  0  0  0  0  0  0  0  0  0  0
   11.9184   23.8371    4.1971 C   0  0  0  0  0  0  0  0  0  0  0  0
   11.0329   21.9395    2.8431 C   0  0  0  0  0  0  0  0  0  0  0  0
   11.6380   24.7819    4.8738 N   0  0  0  0  0  0  0  0  0  0  0  0
   10.4522   25.4122    4.7042 C   0  0  2  0  0  0  0  0  0  0  0  0
    9.7464   25.9736    5.8253 N   0  0  0  0  0  0  0  0  0  0  0  0
   10.2377   25.7892    7.1162 C   0  0  0  0  0  0  0  0  0  0  0  0
    9.4493   26.4296    8.1347 C   0  0  1  0  0  0  0  0  0  0  0  0
   11.1788   25.0722    7.4706 O   0  0  0  0  0  0  0  0  0  0  0  0
    8.8145   27.6300    7.8683 C   0  0  0  0  0  0  0  0  0  0  0  0
    9.2129   25.7014    9.3263 C   0  0  0  0  0  0  0  0  0  0  0  0
    8.0375   28.1788    8.9321 N   0  0  0  0  0  0  0  0  0  0  0  0
  1  2  1  0
  1  3  1  0
  4  3  1  1
  4  5  1  0
  4  6  1  0
  5  7  1  0
  2  8  1  0
  5  8  1  0
  7  9  1  0
  6 10  1  0
  9 10  1  0
 10 11  1  1
 11 12  1  0
 12 13  1  0
 12 14  2  0
 13 15  1  0
 13 16  1  6
 15 17  1  0
M  END
$$$$
34
     RDKit          3D

 17 19  0  0  0  0  0  0  0  0999 V2000
    8.7965   22.1129    1.8528 C   0  0  0  0  0  0  0  0  0  0  0  0
    9.8574   21.5603    2.2234 C   0  0  0  0  0  0  0  0  0  0  0  0
    8.8802   23.4877    2.2044 C   0  0  0  0  0  0  0  0  0  0  0  0
    9.7801   23.8495    2.8783 C   0  0  2  0  0  0  0  0  0  0  0  0
   10.9529   23.2087    3.3375 C   0  0  0  0  0  0  0  0  0  0  0  0
    9.7524   25.2742    3.6943 C   0  0  0  0  0  0  0  0  0  0  0  0
   11.9184   23.8371    4.1971 C   0  0  0  0  0  0  0  0  0  0  0  0
   11.0329   21.9395    2.8431 C   0  0  0  0  0  0  0  0  0  0  0  0
   11.6380   24.7819    4.8738 N   0  0  0  0  0  0  0  0  0  0  0  0
   10.4522   25.4122    4.7042 C   0  0  2  0  0  0  0  0  0  0  0  0
    9.7464   25.9736    5.8253 N   0  0  0  0  0  0  0  0  0  0  0  0
   10.2377   25.7892    7.1162 C   0  0  0  0  0  0  0  0  0  0  0  0
    8.6326   26.7151    5.6972 C   0  0  0  0  0  0  0  0  0  0  0  0
   11.1640   24.8938    7.3211 O   0  0  0  0  0  0  0  0  0  0  0  0
    9.3968   26.1474    8.2235 C   0  0  0  0  0  0  0  0  0  0  0  0
    8.5835   27.2880    7.6769 C   0  0  1  0  0  0  0  0  0  0  0  0
    9.1822   28.4898    7.7698 O   0  0  0  0  0  0  0  0  0  0  0  0
  1  2  1  0
  1  3  1  0
  4  3  1  1
  4  5  1  0
  4  6  1  0
  5  7  1  0
  2  8  1  0
  5  8  1  0
  7  9  1  0
  6 10  1  0
  9 10  1  0
 10 11  1  1
 11 12  1  0
 11 13  1  0
 12 14  2  0
 12 15  1  0
 13 16  1  0
 15 16  1  0
 16 17  1  6
M  END
$$$$
35
     RDKit          3D

 17 19  0  0  0  0  0  0  0  0999 V2000
    8.8442   27.9866    8.3990 C   0  0  0  0  0  0  0  0  0  0  0  0
    8.3862   27.7454    7.2005 C   0  0  0  0  0  0  0  0  0  0  0  0
    8.7989   26.4306    6.5638 C   0  0  0  0  0  0  0  0  0  0  0  0
    9.5216   26.7657    9.0399 C   0  0  0  0  0  0  0  0  0  0  0  0
    9.7883   25.7136    8.2595 C   0  0  0  0  0  0  0  0  0  0  0  0
    9.3981   25.4869    7.1207 C   0  0  0  0  0  0  0  0  0  0  0  0
    9.6287   24.3461    6.2835 C   0  0  0  0  0  0  0  0  0  0  0  0
   10.5517   23.4319    6.8053 O   0  0  0  0  0  0  0  0  0  0  0  0
    9.5637   24.1614    5.0012 N   0  0  0  0  0  0  0  0  0  0  0  0
    8.7924   24.8977    4.1356 C   0  0  0  0  0  0  0  0  0  0  0  0
   10.3431   23.0046    4.3347 C   0  0  0  0  0  0  0  0  0  0  0  0
    9.1891   24.8651    2.7994 C   0  0  2  0  0  0  0  0  0  0  0  0
    8.1010   25.1744    1.8524 O   0  0  0  0  0  0  0  0  0  0  0  0
    9.7735   23.5179    2.4058 C   0  0  2  0  0  0  0  0  0  0  0  0
    8.6614   22.8226    1.8280 C   0  0  0  0  0  0  0  0  0  0  0  0
    7.8088   23.8904    1.4264 C   0  0  0  0  0  0  0  0  0  0  0  0
   11.1595   23.4311    2.0024 C   0  0  0  0  0  0  0  0  0  0  0  0
  1  2  1  0
  2  3  1  0
  1  4  1  0
  4  5  1  0
  3  6  1  0
  5  6  1  0
  6  7  1  0
  7  8  2  0
  7  9  1  0
  9 10  1  0
  9 11  1  0
 12 10  1  1
 12 13  1  0
 11 14  1  0
 12 14  1  0
 14 15  1  0
 13 16  1  0
 15 16  1  0
 14 17  1  6
M  END
$$$$
36
     RDKit          3D

 17 19  0  0  0  0  0  0  0  0999 V2000
   10.1015   21.4335    1.5568 C   0  0  0  0  0  0  0  0  0  0  0  0
    9.0756   22.2549    1.4200 C   0  0  0  0  0  0  0  0  0  0  0  0
   10.9996   21.6763    2.5971 C   0  0  0  0  0  0  0  0  0  0  0  0
   10.7213   22.8722    3.2535 C   0  0  0  0  0  0  0  0  0  0  0  0
    8.8238   23.4253    2.1421 C   0  0  0  0  0  0  0  0  0  0  0  0
    9.7283   23.6851    3.1403 C   0  0  0  0  0  0  0  0  0  0  0  0
   11.7534   23.1980    4.4291 C   0  0  2  0  0  0  0  0  0  0  0  0
   11.1169   22.7802    5.6212 O   0  0  0  0  0  0  0  0  0  0  0  0
   10.8664   23.7251    6.5227 C   0  0  2  0  0  0  0  0  0  0  0  0
   12.0594   24.6569    4.5884 C   0  0  0  0  0  0  0  0  0  0  0  0
    9.8710   24.0965    7.0892 C   0  0  0  0  0  0  0  0  0  0  0  0
   12.0039   24.7712    6.1533 C   0  0  1  0  0  0  0  0  0  0  0  0
   11.8203   25.9747    6.7146 C   0  0  0  0  0  0  0  0  0  0  0  0
   10.6453   26.0751    7.5211 N   0  0  0  0  0  0  0  0  0  0  0  0
    9.7493   25.4548    7.4915 C   0  0  2  0  0  0  0  0  0  0  0  0
    8.3643   25.8240    8.1990 C   0  0  0  0  0  0  0  0  0  0  0  0
    8.3948   26.9787    8.7724 C   0  0  0  0  0  0  0  0  0  0  0  0
  1  2  1  0
  1  3  1  0
  3  4  1  0
  2  5  1  0
  4  6  1  0
  5  6  1  0
  7  4  1  6
  7  8  1  0
  8  9  1  0
  7 10  1  0
  9 11  1  6
  9 12  1  0
 12 10  1  6
 12 13  1  0
 13 14  1  0
 11 15  1  0
 14 15  1  0
 15 16  1  1
 16 17  2  0
M  END
$$$$
37
     RDKit          3D

 17 18  0  0  0  0  0  0  0  0999 V2000
   12.4722   24.9936    4.1672 N   0  0  0  0  0  0  0  0  0  0  0  0
   12.1815   24.8178    5.3501 C   0  0  0  0  0  0  0  0  0  0  0  0
   11.6007   24.2540    3.2600 C   0  0  1  0  0  0  0  0  0  0  0  0
   10.8132   24.5310    5.6441 N   0  0  0  0  0  0  0  0  0  0  0  0
   10.4293   24.0751    4.2678 C   0  0  2  0  0  0  0  0  0  0  0  0
   10.0212   25.1386    6.4561 C   0  0  0  0  0  0  0  0  0  0  0  0
    9.1827   23.4777    4.0381 C   0  0  0  0  0  0  0  0  0  0  0  0
    9.0375   23.1212    2.7339 C   0  0  0  0  0  0  0  0  0  0  0  0
    7.8603   22.3947    2.2147 F   0  0  0  0  0  0  0  0  0  0  0  0
   11.4013   23.9410    2.0491 C   0  0  0  0  0  0  0  0  0  0  0  0
    9.8933   23.3317    1.5387 C   0  0  0  0  0  0  0  0  0  0  0  0
    9.5064   26.2850    5.9725 O   0  0  0  0  0  0  0  0  0  0  0  0
   10.0480   25.1783    7.9754 C   0  0  0  0  0  0  0  0  0  0  0  0
    9.2564   26.1606    8.7013 C   0  0  1  0  0  0  0  0  0  0  0  0
    9.6775   27.4071    8.7147 C   0  0  0  0  0  0  0  0  0  0  0  0
    7.9015   26.2907    7.9432 N   0  0  0  0  0  0  0  0  0  0  0  0
    7.0232   27.1325    8.7434 C   0  0  0  0  0  0  0  0  0  0  0  0
  1  2  1  0
  1  3  1  0
  2  4  1  0
  3  5  1  0
  4  5  1  0
  4  6  1  0
  5  7  1  1
  7  8  1  0
  8  9  1  0
  3 10  1  6
  8 11  1  0
 10 11  1  0
  6 12  2  0
  6 13  1  0
 13 14  1  0
 14 15  1  6
 14 16  1  0
 16 17  1  0
M  END
$$$$
38
     RDKit          3D

 17 18  0  0  0  0  0  0  0  0999 V2000
    8.4262   28.2013    8.2709 C   0  0  0  0  0  0  0  0  0  0  0  0
    9.2342   27.2918    8.9477 C   0  0  0  0  0  0  0  0  0  0  0  0
    9.2119   26.1963    8.1698 C   0  0  0  0  0  0  0  0  0  0  0  0
    7.8917   28.2175    7.0914 C   0  0  0  0  0  0  0  0  0  0  0  0
    8.7343   26.0128    6.8865 C   0  0  0  0  0  0  0  0  0  0  0  0
    9.0288   24.7630    6.2307 N   0  0  0  0  0  0  0  0  0  0  0  0
    8.0260   27.0160    6.3335 C   0  0  0  0  0  0  0  0  0  0  0  0
    9.4444   24.7375    4.9446 C   0  0  0  0  0  0  0  0  0  0  0  0
   10.1943   23.5549    4.6639 C   0  0  2  0  0  0  0  0  0  0  0  0
   10.9153   22.9487    5.7370 C   0  0  0  0  0  0  0  0  0  0  0  0
   11.1773   23.5735    3.4587 C   0  0  2  0  0  0  0  0  0  0  0  0
   11.5742   22.3876    3.0025 C   0  0  1  0  0  0  0  0  0  0  0  0
   11.7529   21.8083    5.5325 C   0  0  0  0  0  0  0  0  0  0  0  0
   12.3343   21.6905    4.1940 C   0  0  0  0  0  0  0  0  0  0  0  0
   12.2849   24.6049    3.7176 C   0  0  0  0  0  0  0  0  0  0  0  0
   10.3613   21.4864    2.6350 C   0  0  0  0  0  0  0  0  0  0  0  0
    9.6378   22.0892    1.5078 C   0  0  0  0  0  0  0  0  0  0  0  0
  1  2  1  0
  2  3  1  0
  1  4  1  0
  3  5  1  0
  5  6  1  0
  4  7  1  0
  5  7  1  0
  6  8  1  0
  9  8  1  1
  9 10  1  0
  9 11  1  0
 11 12  1  0
 10 13  1  0
 12 14  1  0
 13 14  1  0
 11 15  1  1
 12 16  1  1
 16 17  1  0
M  END
$$$$
39
     RDKit          3D

 18 19  0  0  0  0  0  0  0  0999 V2000
    7.6235   28.1098    7.8805 N   0  0  0  0  0  0  0  0  0  0  0  0
    8.7563   27.5902    8.4482 C   0  0  0  0  0  0  0  0  0  0  0  0
    7.2671   27.5450    6.7347 C   0  0  0  0  0  0  0  0  0  0  0  0
    9.4453   26.5172    7.9842 C   0  0  0  0  0  0  0  0  0  0  0  0
    7.9301   26.6109    6.2767 N   0  0  0  0  0  0  0  0  0  0  0  0
    8.9986   26.0311    6.9495 C   0  0  1  0  0  0  0  0  0  0  0  0
    9.6573   24.9359    6.2158 C   0  0  2  0  0  0  0  0  0  0  0  0
   10.8749   24.6672    6.4633 C   0  0  0  0  0  0  0  0  0  0  0  0
    9.0189   24.2023    5.1102 C   0  0  0  0  0  0  0  0  0  0  0  0
    9.7141   23.2857    4.4758 C   0  0  0  0  0  0  0  0  0  0  0  0
   11.6412   23.6532    5.8643 C   0  0  0  0  0  0  0  0  0  0  0  0
    9.1594   22.5636    3.3877 O   0  0  0  0  0  0  0  0  0  0  0  0
    8.7853   23.2238    2.2829 C   0  0  2  0  0  0  0  0  0  0  0  0
   11.0923   22.9728    4.8735 C   0  0  0  0  0  0  0  0  0  0  0  0
    7.7105   23.6857    2.2488 C   0  0  0  0  0  0  0  0  0  0  0  0
    9.9155   23.0221    1.3732 C   0  0  0  0  0  0  0  0  0  0  0  0
   11.0099   22.3319    1.6282 O   0  0  0  0  0  0  0  0  0  0  0  0
    7.5384   25.0744    1.6725 C   0  0  0  0  0  0  0  0  0  0  0  0
  1  2  1  0
  1  3  1  0
  2  4  1  0
  3  5  1  0
  6  4  1  6
  5  6  1  0
  6  7  1  0
  7  8  1  6
  7  9  1  0
  9 10  1  0
  8 11  1  0
 10 12  1  0
 12 13  1  0
 10 14  1  0
 11 14  1  0
 13 15  1  6
 13 16  1  0
 16 17  1  0
 15 18  1  0
M  END
$$$$
4
     RDKit          3D

 13 14  0  0  0  0  0  0  0  0999 V2000
    8.7939   22.3806    1.4719 C   0  0  0  0  0  0  0  0  0  0  0  0
    9.7789   21.6621    1.9297 C   0  0  0  0  0  0  0  0  0  0  0  0
    8.7068   23.5248    2.1621 C   0  0  0  0  0  0  0  0  0  0  0  0
   10.7034   21.9382    2.8236 C   0  0  0  0  0  0  0  0  0  0  0  0
    9.6108   23.8035    3.1049 C   0  0  1  0  0  0  0  0  0  0  0  0
   10.6269   23.0419    3.4746 C   0  0  1  0  0  0  0  0  0  0  0  0
    9.5355   25.1945    3.7775 N   0  0  0  0  0  0  0  0  0  0  0  0
   11.4928   23.4184    4.5987 C   0  0  0  0  0  0  0  0  0  0  0  0
   11.1913   24.4312    5.3157 C   0  0  2  0  0  0  0  0  0  0  0  0
   10.2270   25.3239    4.9156 C   0  0  0  0  0  0  0  0  0  0  0  0
   12.1420   24.7907    6.4557 C   0  0  0  0  0  0  0  0  0  0  0  0
   13.3093   24.8883    6.2928 O   0  0  0  0  0  0  0  0  0  0  0  0
   11.5020   24.7815    7.5764 O   0  0  0  0  0  0  0  0  0  0  0  0
  1  2  1  0
  1  3  1  0
  2  4  1  0
  5  3  1  6
  6  4  1  1
  5  6  1  0
  5  7  1  0
  6  8  1  0
  8  9  1  0
  7 10  1  0
  9 10  1  0
  9 11  1  6
 11 12  2  0
 11 13  1  0
M  END
$$$$
40
     RDKit          3D

 18 18  0  0  0  0  0  0  0  0999 V2000
    8.4262   28.2013    8.2709 C   0  0  0  0  0  0  0  0  0  0  0  0
    9.2342   27.2918    8.9477 C   0  0  0  0  0  0  0  0  0  0  0  0
    9.2119   26.1963    8.1698 C   0  0  0  0  0  0  0  0  0  0  0  0
    7.8917   28.2175    7.0914 C   0  0  0  0  0  0  0  0  0  0  0  0
    8.7343   26.0128    6.8865 C   0  0  0  0  0  0  0  0  0  0  0  0
    9.0288   24.7630    6.2307 N   0  0  0  0  0  0  0  0  0  0  0  0
    8.0260   27.0160    6.3335 C   0  0  0  0  0  0  0  0  0  0  0  0
    9.4444   24.7375    4.9446 C   0  0  0  0  0  0  0  0  0  0  0  0
   10.1943   23.5549    4.6639 C   0  0  2  0  0  0  0  0  0  0  0  0
   10.9153   22.9487    5.7370 C   0  0  0  0  0  0  0  0  0  0  0  0
   11.1773   23.5735    3.4587 C   0  0  2  0  0  0  0  0  0  0  0  0
   11.5742   22.3876    3.0025 C   0  0  0  0  0  0  0  0  0  0  0  0
   10.6853   21.3826    2.4571 C   0  0  0  0  0  0  0  0  0  0  0  0
   10.6308   21.1763    1.1722 O   0  0  0  0  0  0  0  0  0  0  0  0
   12.1476   24.5881    3.6826 N   0  0  0  0  0  0  0  0  0  0  0  0
   11.9334   23.5463    6.2855 O   0  0  0  0  0  0  0  0  0  0  0  0
    9.6092   21.0879    3.1776 O   0  0  0  0  0  0  0  0  0  0  0  0
   10.5083   22.0175    6.4464 O   0  0  0  0  0  0  0  0  0  0  0  0
  1  2  1  0
  2  3  1  0
  1  4  1  0
  3  5  1  0
  5  6  1  0
  4  7  1  0
  5  7  1  0
  6  8  1  0
  9  8  1  1
  9 10  1  0
  9 11  1  0
 11 12  1  0
 12 13  1  0
 13 14  2  0
 11 15  1  1
 10 16  2  0
 13 17  1  0
 10 18  1  0
M  END
$$$$
41
     RDKit          3D

 18 20  0  0  0  0  0  0  0  0999 V2000
    8.2693   28.0562    7.8549 C   0  0  0  0  0  0  0  0  0  0  0  0
    9.1542   27.4379    8.6988 C   0  0  0  0  0  0  0  0  0  0  0  0
    8.0088   27.4331    6.6409 C   0  0  2  0  0  0  0  0  0  0  0  0
    7.1009   27.9405    5.7442 O   0  0  0  0  0  0  0  0  0  0  0  0
    9.7532   26.1845    8.4380 C   0  0  0  0  0  0  0  0  0  0  0  0
    9.4504   25.6289    7.2460 C   0  0  0  0  0  0  0  0  0  0  0  0
    8.6875   26.1284    6.4324 C   0  0  0  0  0  0  0  0  0  0  0  0
   10.1272   24.1633    6.8605 C   0  0  0  0  0  0  0  0  0  0  0  0
    6.4942   26.8614    4.9146 C   0  0  0  0  0  0  0  0  0  0  0  0
   10.9900   24.2458    5.8876 N   0  0  0  0  0  0  0  0  0  0  0  0
   11.4763   23.0969    5.3274 C   0  0  0  0  0  0  0  0  0  0  0  0
   10.9270   25.2437    4.7946 C   0  0  0  0  0  0  0  0  0  0  0  0
   11.3359   24.5574    3.4689 C   0  0  1  0  0  0  0  0  0  0  0  0
   11.5063   23.1825    3.8500 C   0  0  2  0  0  0  0  0  0  0  0  0
   10.4621   24.6642    2.4116 N   0  0  0  0  0  0  0  0  0  0  0  0
   11.5766   22.1761    2.8860 C   0  0  0  0  0  0  0  0  0  0  0  0
   10.4267   23.5496    1.5258 C   0  0  0  0  0  0  0  0  0  0  0  0
   10.5713   22.2771    2.0113 C   0  0  0  0  0  0  0  0  0  0  0  0
  1  2  1  0
  1  3  1  0
  3  4  1  1
  2  5  1  0
  5  6  1  0
  3  7  1  0
  6  7  1  0
  6  8  1  0
  4  9  1  0
  8 10  1  0
 10 11  1  0
 10 12  1  0
 13 12  1  1
 14 11  1  1
 13 14  1  0
 13 15  1  0
 14 16  1  0
 15 17  1  0
 16 18  1  0
 17 18  1  0
M  END
$$$$
42
     RDKit          3D

 18 20  0  0  0  0  0  0  0  0999 V2000
    7.6235   28.1098    7.8805 N   0  0  0  0  0  0  0  0  0  0  0  0
    8.7563   27.5902    8.4482 C   0  0  0  0  0  0  0  0  0  0  0  0
    7.2671   27.5450    6.7347 C   0  0  0  0  0  0  0  0  0  0  0  0
    9.4453   26.5172    7.9842 C   0  0  1  0  0  0  0  0  0  0  0  0
    7.9301   26.6109    6.2767 N   0  0  0  0  0  0  0  0  0  0  0  0
    8.9986   26.0311    6.9495 C   0  0  1  0  0  0  0  0  0  0  0  0
    9.6573   24.9359    6.2158 C   0  0  2  0  0  0  0  0  0  0  0  0
   10.8749   24.6672    6.4633 C   0  0  0  0  0  0  0  0  0  0  0  0
    9.0189   24.2023    5.1102 C   0  0  0  0  0  0  0  0  0  0  0  0
    9.7141   23.2857    4.4758 C   0  0  1  0  0  0  0  0  0  0  0  0
   11.6828   25.3213    7.6217 C   0  0  0  0  0  0  0  0  0  0  0  0
   10.6671   26.0933    8.4727 C   0  0  0  0  0  0  0  0  0  0  0  0
   11.4486   23.8202    5.6604 N   0  0  0  0  0  0  0  0  0  0  0  0
    9.1395   22.5854    3.3663 C   0  0  1  0  0  0  0  0  0  0  0  0
    9.8937   21.7190    2.5764 C   0  0  0  0  0  0  0  0  0  0  0  0
   11.1172   23.1960    4.7174 C   0  0  0  0  0  0  0  0  0  0  0  0
    7.8298   22.5343    3.2966 O   0  0  0  0  0  0  0  0  0  0  0  0
    9.2263   21.4481    1.3825 O   0  0  0  0  0  0  0  0  0  0  0  0
  1  2  1  0
  1  3  1  0
  4  2  1  6
  3  5  1  0
  4  6  1  0
  6  5  1  6
  6  7  1  0
  7  8  1  0
  7  9  1  6
 10  9  1  6
  8 11  1  0
  4 12  1  0
 11 12  1  0
  8 13  1  0
 10 14  1  0
 14 15  1  0
 10 16  1  0
 13 16  1  0
 14 17  1  1
 15 18  1  0
M  END
$$$$
43
     RDKit          3D

 18 19  0  0  0  0  0  0  0  0999 V2000
    8.8442   27.9866    8.3990 C   0  0  0  0  0  0  0  0  0  0  0  0
    8.3862   27.7454    7.2005 C   0  0  0  0  0  0  0  0  0  0  0  0
    8.7989   26.4306    6.5638 C   0  0  0  0  0  0  0  0  0  0  0  0
    9.5216   26.7657    9.0399 C   0  0  0  0  0  0  0  0  0  0  0  0
    9.7883   25.7136    8.2595 C   0  0  0  0  0  0  0  0  0  0  0  0
    9.3981   25.4869    7.1207 C   0  0  0  0  0  0  0  0  0  0  0  0
    9.6287   24.3461    6.2835 C   0  0  0  0  0  0  0  0  0  0  0  0
   10.5517   23.4319    6.8053 O   0  0  0  0  0  0  0  0  0  0  0  0
    9.5637   24.1614    5.0012 N   0  0  0  0  0  0  0  0  0  0  0  0
   10.1244   23.0669    4.2438 C   0  0  1  0  0  0  0  0  0  0  0  0
    9.5221   22.9161    3.0282 C   0  0  1  0  0  0  0  0  0  0  0  0
   11.6434   23.2562    4.0537 C   0  0  0  0  0  0  0  0  0  0  0  0
   10.0619   21.7986    2.1666 C   0  0  0  0  0  0  0  0  0  0  0  0
   12.4291   23.6045    5.0735 N   0  0  0  0  0  0  0  0  0  0  0  0
   12.1580   23.0466    2.8208 C   0  0  0  0  0  0  0  0  0  0  0  0
   13.3101   24.7551    5.1111 C   0  0  0  0  0  0  0  0  0  0  0  0
    8.2590   23.5880    2.6641 C   0  0  0  0  0  0  0  0  0  0  0  0
   11.5175   22.1265    1.9170 C   0  0  0  0  0  0  0  0  0  0  0  0
  1  2  1  0
  2  3  1  0
  1  4  1  0
  4  5  1  0
  3  6  1  0
  5  6  1  0
  6  7  1  0
  7  8  2  0
  7  9  1  0
 10  9  1  6
 10 11  1  0
 10 12  1  0
 11 13  1  0
 12 14  1  0
 12 15  1  0
 14 16  1  0
 11 17  1  1
 13 18  1  0
 15 18  1  0
M  END
$$$$
44
     RDKit          3D

 18 19  0  0  0  0  0  0  0  0999 V2000
   13.1674   25.1983    4.4733 O   0  0  0  0  0  0  0  0  0  0  0  0
   12.3027   24.3460    4.8068 C   0  0  1  0  0  0  0  0  0  0  0  0
   11.4678   24.6899    5.8125 C   0  0  1  0  0  0  0  0  0  0  0  0
   12.0401   23.4256    3.7194 C   0  0  0  0  0  0  0  0  0  0  0  0
   10.7448   22.6440    3.9408 C   0  0  1  0  0  0  0  0  0  0  0  0
    9.9888   22.9137    5.0621 C   0  0  0  0  0  0  0  0  0  0  0  0
   10.3848   23.8894    5.9294 C   0  0  2  0  0  0  0  0  0  0  0  0
   10.3136   21.7909    2.8501 C   0  0  0  0  0  0  0  0  0  0  0  0
   11.9569   25.6721    6.6591 O   0  0  0  0  0  0  0  0  0  0  0  0
    9.5946   24.3973    7.0419 O   0  0  0  0  0  0  0  0  0  0  0  0
    9.3013   25.6341    7.3949 C   0  0  0  0  0  0  0  0  0  0  0  0
    8.0753   26.0845    6.7620 C   0  0  0  0  0  0  0  0  0  0  0  0
    9.7027   26.3225    8.4617 C   0  0  0  0  0  0  0  0  0  0  0  0
    7.7078   27.4261    7.3033 C   0  0  0  0  0  0  0  0  0  0  0  0
    9.3024   27.5104    8.8784 C   0  0  0  0  0  0  0  0  0  0  0  0
    8.2719   28.0799    8.2249 N   0  0  0  0  0  0  0  0  0  0  0  0
    9.0268   21.4681    2.8704 O   0  0  0  0  0  0  0  0  0  0  0  0
   10.9043   21.8090    1.6910 O   0  0  0  0  0  0  0  0  0  0  0  0
  2  1  1  6
  2  3  1  0
  2  4  1  0
  4  5  1  0
  5  6  1  0
  3  7  1  0
  6  7  1  0
  5  8  1  6
  3  9  1  1
  7 10  1  6
 10 11  1  0
 11 12  1  0
 11 13  1  0
 12 14  1  0
 13 15  1  0
 14 16  1  0
 15 16  1  0
  8 17  2  0
  8 18  1  0
M  END
$$$$
45
     RDKit          3D

 18 21  0  0  0  0  0  0  0  0999 V2000
    7.8785   28.2159    7.0732 C   0  0  0  0  0  0  0  0  0  0  0  0
    8.5001   27.8669    8.2413 C   0  0  0  0  0  0  0  0  0  0  0  0
    9.2319   26.6537    8.4432 C   0  0  0  0  0  0  0  0  0  0  0  0
    9.3168   25.8826    7.3778 C   0  0  1  0  0  0  0  0  0  0  0  0
    8.8046   26.2263    6.3520 C   0  0  2  0  0  0  0  0  0  0  0  0
    8.0687   27.3349    6.0452 C   0  0  0  0  0  0  0  0  0  0  0  0
    8.9787   25.1449    5.3090 C   0  0  2  0  0  0  0  0  0  0  0  0
    9.8122   24.1560    5.7331 C   0  0  1  0  0  0  0  0  0  0  0  0
   10.4190   23.2397    4.6963 C   0  0  0  0  0  0  0  0  0  0  0  0
   11.1450   22.1781    5.0086 O   0  0  0  0  0  0  0  0  0  0  0  0
   10.2628   24.5765    7.5371 S   0  0  0  0  0  0  0  0  0  0  0  0
   10.4081   23.7138    3.5589 N   0  0  0  0  0  0  0  0  0  0  0  0
   11.0261   22.9908    2.3882 C   0  0  1  0  0  0  0  0  0  0  0  0
    9.6721   24.8778    3.1297 C   0  0  1  0  0  0  0  0  0  0  0  0
    9.3000   24.6574    1.7624 C   0  0  0  0  0  0  0  0  0  0  0  0
   11.2957   21.6314    2.5838 C   0  0  0  0  0  0  0  0  0  0  0  0
    8.6297   25.0161    3.9872 N   0  0  0  0  0  0  0  0  0  0  0  0
   10.0716   23.4026    1.3399 C   0  0  0  0  0  0  0  0  0  0  0  0
  1  2  1  0
  2  3  1  0
  4  3  1  6
  4  5  1  0
  1  6  1  0
  5  6  1  1
  5  7  1  0
  7  8  1  0
  8  9  1  0
  9 10  2  0
  4 11  1  0
  8 11  1  6
  9 12  1  0
 12 13  1  0
 12 14  1  0
 14 15  1  6
 13 16  1  1
  7 17  1  6
 14 17  1  0
 13 18  1  0
 15 18  1  0
M  END
$$$$
46
     RDKit          3D

 18 19  0  0  0  0  0  0  0  0999 V2000
   12.4722   24.9936    4.1672 N   0  0  0  0  0  0  0  0  0  0  0  0
   12.1815   24.8178    5.3501 C   0  0  0  0  0  0  0  0  0  0  0  0
   11.6007   24.2540    3.2600 C   0  0  1  0  0  0  0  0  0  0  0  0
   10.8132   24.5310    5.6441 N   0  0  0  0  0  0  0  0  0  0  0  0
   10.4293   24.0751    4.2678 C   0  0  2  0  0  0  0  0  0  0  0  0
   10.0212   25.1386    6.4561 C   0  0  0  0  0  0  0  0  0  0  0  0
    9.1827   23.4777    4.0381 C   0  0  0  0  0  0  0  0  0  0  0  0
    9.0375   23.1212    2.7339 C   0  0  0  0  0  0  0  0  0  0  0  0
    7.8603   22.3947    2.2147 F   0  0  0  0  0  0  0  0  0  0  0  0
   11.4013   23.9410    2.0491 C   0  0  0  0  0  0  0  0  0  0  0  0
    9.8933   23.3317    1.5387 C   0  0  0  0  0  0  0  0  0  0  0  0
    9.5064   26.2850    5.9725 O   0  0  0  0  0  0  0  0  0  0  0  0
   10.0480   25.1783    7.9754 C   0  0  0  0  0  0  0  0  0  0  0  0
   12.9976   25.1565    6.3713 O   0  0  0  0  0  0  0  0  0  0  0  0
    9.1064   26.0806    8.7001 C   0  0  0  0  0  0  0  0  0  0  0  0
    7.8903   26.0824    8.5935 C   0  0  0  0  0  0  0  0  0  0  0  0
    7.1741   27.3814    8.8785 N   0  0  0  0  0  0  0  0  0  0  0  0
    7.0963   25.2555    7.9579 O   0  0  0  0  0  0  0  0  0  0  0  0
  1  2  1  0
  1  3  1  0
  2  4  1  0
  3  5  1  0
  4  5  1  0
  4  6  1  0
  5  7  1  1
  7  8  1  0
  8  9  1  0
  3 10  1  6
  8 11  1  0
 10 11  1  0
  6 12  2  0
  6 13  1  0
  2 14  2  0
 13 15  1  0
 15 16  1  0
 16 17  1  0
 16 18  2  0
M  END
$$$$
47
     RDKit          3D

 18 21  0  0  0  0  0  0  0  0999 V2000
   10.0826   21.2541    1.3025 N   0  0  0  0  0  0  0  0  0  0  0  0
    9.7173   22.1639    1.6842 C   0  0  0  0  0  0  0  0  0  0  0  0
    9.7422   23.2106    2.7012 C   0  0  1  0  0  0  0  0  0  0  0  0
    8.6631   23.8596    3.0582 C   0  0  1  0  0  0  0  0  0  0  0  0
   11.0362   23.3963    3.3758 C   0  0  0  0  0  0  0  0  0  0  0  0
    8.7461   24.8280    3.9041 C   0  0  2  0  0  0  0  0  0  0  0  0
   12.2496   22.7058    3.0517 C   0  0  0  0  0  0  0  0  0  0  0  0
    7.4153   23.8662    2.0927 C   0  0  0  0  0  0  0  0  0  0  0  0
   10.9992   24.3688    4.4933 C   0  0  2  0  0  0  0  0  0  0  0  0
    9.7095   25.0515    4.5616 C   0  0  2  0  0  0  0  0  0  0  0  0
    9.6986   25.8083    5.8638 N   0  0  0  0  0  0  0  0  0  0  0  0
    7.2885   25.3000    3.9160 N   0  0  0  0  0  0  0  0  0  0  0  0
    6.6100   24.8013    2.8575 C   0  0  0  0  0  0  0  0  0  0  0  0
   12.0829   24.6809    5.2753 C   0  0  2  0  0  0  0  0  0  0  0  0
   10.6844   25.8577    6.6582 C   0  0  0  0  0  0  0  0  0  0  0  0
   13.3073   24.1076    4.8851 C   0  0  0  0  0  0  0  0  0  0  0  0
   13.2295   22.8708    4.0936 N   0  0  0  0  0  0  0  0  0  0  0  0
   11.9082   25.4239    6.4284 C   0  0  0  0  0  0  0  0  0  0  0  0
  1  2  3  0
  3  2  1  1
  3  4  1  0
  3  5  1  0
  4  6  1  0
  5  7  1  0
  4  8  1  6
  9  5  1  6
  6 10  1  0
  9 10  1  0
 10 11  1  1
  6 12  1  1
  8 13  1  0
 12 13  1  0
  9 14  1  0
 11 15  1  0
 14 16  1  1
  7 17  1  0
 16 17  1  0
 14 18  1  0
 15 18  1  0
M  END
$$$$
48
     RDKit          3D

 18 19  0  0  0  0  0  0  0  0999 V2000
   10.1015   21.4335    1.5568 C   0  0  0  0  0  0  0  0  0  0  0  0
   10.4964   22.0851    2.5651 C   0  0  0  0  0  0  0  0  0  0  0  0
    9.8724   23.2586    3.1328 C   0  0  0  0  0  0  0  0  0  0  0  0
    8.8120   21.8883    1.0754 C   0  0  0  0  0  0  0  0  0  0  0  0
    8.2763   23.1072    1.7948 C   0  0  0  0  0  0  0  0  0  0  0  0
    8.8081   23.7191    2.7710 C   0  0  0  0  0  0  0  0  0  0  0  0
   10.7066   23.9164    4.3986 C   0  0  1  0  0  0  0  0  0  0  0  0
   11.9767   24.2515    4.2280 C   0  0  0  0  0  0  0  0  0  0  0  0
   10.0347   24.3639    5.3466 C   0  0  0  0  0  0  0  0  0  0  0  0
   10.5037   24.9244    6.4605 C   0  0  1  0  0  0  0  0  0  0  0  0
   11.9552   25.2942    6.4229 C   0  0  0  0  0  0  0  0  0  0  0  0
   12.6668   24.7572    5.2903 C   0  0  0  0  0  0  0  0  0  0  0  0
    9.7954   25.4698    7.8209 S   0  0  0  0  0  0  0  0  0  0  0  0
    8.5410   26.3901    7.5406 N   0  0  0  0  0  0  0  0  0  0  0  0
   10.6689   26.1415    8.7030 O   0  0  0  0  0  0  0  0  0  0  0  0
    9.2540   24.2630    8.5505 O   0  0  0  0  0  0  0  0  0  0  0  0
    7.5581   26.5085    8.4161 C   0  0  0  0  0  0  0  0  0  0  0  0
    6.6988   27.4935    7.7847 N   0  0  0  0  0  0  0  0  0  0  0  0
  1  2  1  0
  2  3  1  0
  1  4  1  0
  4  5  1  0
  3  6  1  0
  5  6  1  0
  7  3  1  6
  7  8  1  0
  7  9  1  0
  9 10  1  0
 10 11  1  0
  8 12  1  0
 11 12  1  0
 10 13  1  6
 13 14  1  0
 13 15  2  0
 13 16  2  0
 14 17  1  0
 17 18  1  0
M  END
$$$$
49
     RDKit          3D

 18 19  0  0  0  0  0  0  0  0999 V2000
    9.6379   21.4497    1.6912 C   0  0  0  0  0  0  0  0  0  0  0  0
    8.6721   22.3973    1.9063 C   0  0  0  0  0  0  0  0  0  0  0  0
    9.0560   23.4995    2.7049 C   0  0  2  0  0  0  0  0  0  0  0  0
   10.9268   21.7103    2.1345 C   0  0  0  0  0  0  0  0  0  0  0  0
   11.0750   22.7404    2.9500 C   0  0  0  0  0  0  0  0  0  0  0  0
   10.1854   23.6162    3.2565 C   0  0  0  0  0  0  0  0  0  0  0  0
    7.9864   24.4915    3.1007 C   0  0  0  0  0  0  0  0  0  0  0  0
    8.2284   25.3866    4.0089 C   0  0  0  0  0  0  0  0  0  0  0  0
   10.2644   24.7308    4.1920 C   0  0  0  0  0  0  0  0  0  0  0  0
    9.3702   25.4673    4.5037 C   0  0  0  0  0  0  0  0  0  0  0  0
   11.7168   24.9680    4.8084 C   0  0  0  0  0  0  0  0  0  0  0  0
   11.7563   25.2015    6.1595 C   0  0  0  0  0  0  0  0  0  0  0  0
   11.1732   24.3595    7.1152 C   0  0  0  0  0  0  0  0  0  0  0  0
   10.4074   24.9757    8.1549 C   0  0  0  0  0  0  0  0  0  0  0  0
    9.4814   25.9311    7.8421 C   0  0  0  0  0  0  0  0  0  0  0  0
    8.2241   25.7712    7.3139 N   0  0  0  0  0  0  0  0  0  0  0  0
    9.6693   27.2385    8.3579 O   0  0  0  0  0  0  0  0  0  0  0  0
    7.2956   26.8814    7.0799 C   0  0  0  0  0  0  0  0  0  0  0  0
  1  2  1  0
  3  2  1  1
  1  4  1  0
  4  5  1  0
  3  6  1  0
  5  6  1  0
  3  7  1  0
  7  8  1  0
  6  9  1  0
  8 10  1  0
  9 10  1  0
  9 11  1  0
 11 12  1  0
 12 13  1  0
 13 14  1  0
 14 15  1  0
 15 16  1  0
 15 17  2  0
 16 18  1  0
M  END
$$$$
5
     RDKit          3D

 13 14  0  0  0  0  0  0  0  0999 V2000
    9.6379   21.4497    1.6912 C   0  0  0  0  0  0  0  0  0  0  0  0
    8.6721   22.3973    1.9063 C   0  0  0  0  0  0  0  0  0  0  0  0
    9.0560   23.4995    2.7049 C   0  0  2  0  0  0  0  0  0  0  0  0
   10.9268   21.7103    2.1345 C   0  0  0  0  0  0  0  0  0  0  0  0
   11.0750   22.7404    2.9500 C   0  0  0  0  0  0  0  0  0  0  0  0
   10.1854   23.6162    3.2565 C   0  0  0  0  0  0  0  0  0  0  0  0
    7.9864   24.4915    3.1007 C   0  0  0  0  0  0  0  0  0  0  0  0
    8.2284   25.3866    4.0089 C   0  0  0  0  0  0  0  0  0  0  0  0
   10.2644   24.7308    4.1920 C   0  0  0  0  0  0  0  0  0  0  0  0
    9.3702   25.4673    4.5037 C   0  0  0  0  0  0  0  0  0  0  0  0
   11.7168   24.9680    4.8084 C   0  0  0  0  0  0  0  0  0  0  0  0
   12.7789   24.9742    4.1188 N   0  0  0  0  0  0  0  0  0  0  0  0
   11.7797   24.9818    6.1255 N   0  0  0  0  0  0  0  0  0  0  0  0
  1  2  1  0
  3  2  1  1
  1  4  1  0
  4  5  1  0
  3  6  1  0
  5  6  1  0
  3  7  1  0
  7  8  1  0
  6  9  1  0
  8 10  1  0
  9 10  1  0
  9 11  1  0
 11 12  1  0
 11 13  2  0
M  END
$$$$
50
     RDKit          3D

 18 19  0  0  0  0  0  0  0  0999 V2000
    8.8442   27.9866    8.3990 C   0  0  0  0  0  0  0  0  0  0  0  0
    8.3862   27.7454    7.2005 C   0  0  0  0  0  0  0  0  0  0  0  0
    8.7989   26.4306    6.5638 C   0  0  0  0  0  0  0  0  0  0  0  0
    9.5216   26.7657    9.0399 C   0  0  0  0  0  0  0  0  0  0  0  0
    9.7883   25.7136    8.2595 C   0  0  0  0  0  0  0  0  0  0  0  0
    9.3981   25.4869    7.1207 C   0  0  0  0  0  0  0  0  0  0  0  0
    9.6287   24.3461    6.2835 C   0  0  0  0  0  0  0  0  0  0  0  0
   10.5517   23.4319    6.8053 O   0  0  0  0  0  0  0  0  0  0  0  0
    9.5637   24.1614    5.0012 N   0  0  0  0  0  0  0  0  0  0  0  0
   10.1244   23.0669    4.2438 C   0  0  1  0  0  0  0  0  0  0  0  0
    9.5221   22.9161    3.0282 C   0  0  0  0  0  0  0  0  0  0  0  0
   11.6434   23.2562    4.0537 C   0  0  0  0  0  0  0  0  0  0  0  0
   10.0619   21.7986    2.1666 C   0  0  1  0  0  0  0  0  0  0  0  0
   12.4291   23.6045    5.0735 N   0  0  0  0  0  0  0  0  0  0  0  0
   12.1580   23.0466    2.8208 C   0  0  0  0  0  0  0  0  0  0  0  0
    9.3761   21.4065    1.1552 N   0  0  0  0  0  0  0  0  0  0  0  0
   11.4478   22.3519    1.8173 C   0  0  0  0  0  0  0  0  0  0  0  0
   13.3090   24.7526    5.1026 C   0  0  0  0  0  0  0  0  0  0  0  0
  1  2  1  0
  2  3  1  0
  1  4  1  0
  4  5  1  0
  3  6  1  0
  5  6  1  0
  6  7  1  0
  7  8  2  0
  7  9  1  0
 10  9  1  6
 10 11  1  0
 10 12  1  0
 11 13  1  0
 12 14  1  0
 12 15  1  0
 13 16  1  6
 13 17  1  0
 15 17  1  0
 14 18  1  0
M  END
$$$$
51
     RDKit          3D

 18 19  0  0  0  0  0  0  0  0999 V2000
    7.6235   28.1098    7.8805 N   0  0  0  0  0  0  0  0  0  0  0  0
    8.7563   27.5902    8.4482 C   0  0  0  0  0  0  0  0  0  0  0  0
    7.2671   27.5450    6.7347 C   0  0  0  0  0  0  0  0  0  0  0  0
    9.4453   26.5172    7.9842 C   0  0  0  0  0  0  0  0  0  0  0  0
    7.9301   26.6109    6.2767 N   0  0  0  0  0  0  0  0  0  0  0  0
    8.9986   26.0311    6.9495 C   0  0  1  0  0  0  0  0  0  0  0  0
    9.6573   24.9359    6.2158 C   0  0  2  0  0  0  0  0  0  0  0  0
   10.8749   24.6672    6.4633 C   0  0  0  0  0  0  0  0  0  0  0  0
    9.0189   24.2023    5.1102 C   0  0  0  0  0  0  0  0  0  0  0  0
    9.7141   23.2857    4.4758 C   0  0  0  0  0  0  0  0  0  0  0  0
   11.6412   23.6532    5.8643 C   0  0  0  0  0  0  0  0  0  0  0  0
    9.1594   22.5636    3.3877 O   0  0  0  0  0  0  0  0  0  0  0  0
   11.0697   22.9582    4.8436 C   0  0  2  0  0  0  0  0  0  0  0  0
   11.7709   22.1034    3.9624 O   0  0  0  0  0  0  0  0  0  0  0  0
    8.5346   23.2576    2.4135 C   0  0  0  0  0  0  0  0  0  0  0  0
   11.6416   22.2578    2.6051 C   0  0  0  0  0  0  0  0  0  0  0  0
    7.3194   23.3411    2.3106 O   0  0  0  0  0  0  0  0  0  0  0  0
    9.4602   23.7860    1.5024 O   0  0  0  0  0  0  0  0  0  0  0  0
  1  2  1  0
  1  3  1  0
  2  4  1  0
  3  5  1  0
  6  4  1  6
  5  6  1  0
  6  7  1  0
  7  8  1  6
  7  9  1  0
  9 10  1  0
  8 11  1  0
 10 12  1  0
 10 13  1  0
 11 13  1  0
 13 14  1  6
 12 15  1  0
 14 16  1  0
 15 17  1  0
 15 18  2  0
M  END
$$$$
52
     RDKit          3D

 18 19  0  0  0  0  0  0  0  0999 V2000
    9.6379   21.4497    1.6912 C   0  0  0  0  0  0  0  0  0  0  0  0
    8.6721   22.3973    1.9063 C   0  0  0  0  0  0  0  0  0  0  0  0
    9.0560   23.4995    2.7049 C   0  0  2  0  0  0  0  0  0  0  0  0
   10.9268   21.7103    2.1345 C   0  0  0  0  0  0  0  0  0  0  0  0
   11.0750   22.7404    2.9500 C   0  0  0  0  0  0  0  0  0  0  0  0
   10.1854   23.6162    3.2565 C   0  0  0  0  0  0  0  0  0  0  0  0
    7.9864   24.4915    3.1007 C   0  0  0  0  0  0  0  0  0  0  0  0
    8.2284   25.3866    4.0089 C   0  0  0  0  0  0  0  0  0  0  0  0
   10.2644   24.7308    4.1920 C   0  0  0  0  0  0  0  0  0  0  0  0
    9.3702   25.4673    4.5037 C   0  0  0  0  0  0  0  0  0  0  0  0
   11.7168   24.9680    4.8084 C   0  0  0  0  0  0  0  0  0  0  0  0
   11.7563   25.2015    6.1595 C   0  0  0  0  0  0  0  0  0  0  0  0
   11.1732   24.3595    7.1152 C   0  0  0  0  0  0  0  0  0  0  0  0
   10.4074   24.9757    8.1549 C   0  0  0  0  0  0  0  0  0  0  0  0
    8.9548   25.1189    7.7672 C   0  0  0  0  0  0  0  0  0  0  0  0
    8.2780   26.1929    8.4734 C   0  0  1  0  0  0  0  0  0  0  0  0
    9.0989   27.0903    9.0810 C   0  0  0  0  0  0  0  0  0  0  0  0
    6.8948   26.3410    8.2249 N   0  0  0  0  0  0  0  0  0  0  0  0
  1  2  1  0
  3  2  1  1
  1  4  1  0
  4  5  1  0
  3  6  1  0
  5  6  1  0
  3  7  1  0
  7  8  1  0
  6  9  1  0
  8 10  1  0
  9 10  1  0
  9 11  1  0
 11 12  1  0
 12 13  1  0
 13 14  1  0
 14 15  1  0
 15 16  1  0
 16 17  1  6
 16 18  1  0
M  END
$$$$
53
     RDKit          3D

 18 20  0  0  0  0  0  0  0  0999 V2000
    7.6235   28.1098    7.8805 N   0  0  0  0  0  0  0  0  0  0  0  0
    8.7563   27.5902    8.4482 C   0  0  0  0  0  0  0  0  0  0  0  0
    7.2671   27.5450    6.7347 C   0  0  0  0  0  0  0  0  0  0  0  0
    9.4453   26.5172    7.9842 C   0  0  0  0  0  0  0  0  0  0  0  0
    7.9301   26.6109    6.2767 N   0  0  0  0  0  0  0  0  0  0  0  0
    8.9986   26.0311    6.9495 C   0  0  1  0  0  0  0  0  0  0  0  0
    9.6573   24.9359    6.2158 C   0  0  2  0  0  0  0  0  0  0  0  0
   10.8749   24.6672    6.4633 C   0  0  0  0  0  0  0  0  0  0  0  0
    9.0189   24.2023    5.1102 C   0  0  0  0  0  0  0  0  0  0  0  0
    9.7141   23.2857    4.4758 C   0  0  2  0  0  0  0  0  0  0  0  0
   11.6412   23.6532    5.8643 C   0  0  0  0  0  0  0  0  0  0  0  0
   11.0505   22.9900    4.8132 C   0  0  1  0  0  0  0  0  0  0  0  0
   11.8927   21.7398    4.0385 S   0  0  0  0  0  0  0  0  0  0  0  0
   11.1415   21.7675    2.5607 C   0  0  0  0  0  0  0  0  0  0  0  0
    9.4793   22.8845    3.1565 C   0  0  2  0  0  0  0  0  0  0  0  0
    8.0666   23.3244    2.7442 O   0  0  0  0  0  0  0  0  0  0  0  0
    7.6992   24.4308    2.2051 C   0  0  0  0  0  0  0  0  0  0  0  0
   10.0120   22.1272    2.2444 C   0  0  0  0  0  0  0  0  0  0  0  0
  1  2  1  0
  1  3  1  0
  2  4  1  0
  3  5  1  0
  6  4  1  6
  5  6  1  0
  6  7  1  0
  7  8  1  6
  7  9  1  0
 10  9  1  6
  8 11  1  0
 10 12  1  0
 12 11  1  1
 12 13  1  0
 13 14  1  0
 10 15  1  0
 15 16  1  1
 16 17  1  0
 14 18  1  0
 15 18  1  0
M  END
$$$$
54
     RDKit          3D

 18 19  0  0  0  0  0  0  0  0999 V2000
    8.7939   22.3806    1.4719 C   0  0  0  0  0  0  0  0  0  0  0  0
    9.7789   21.6621    1.9297 C   0  0  0  0  0  0  0  0  0  0  0  0
    8.7068   23.5248    2.1621 C   0  0  0  0  0  0  0  0  0  0  0  0
   10.7034   21.9382    2.8236 C   0  0  0  0  0  0  0  0  0  0  0  0
    9.6108   23.8035    3.1049 C   0  0  1  0  0  0  0  0  0  0  0  0
   10.6269   23.0419    3.4746 C   0  0  1  0  0  0  0  0  0  0  0  0
    9.5355   25.1945    3.7775 N   0  0  0  0  0  0  0  0  0  0  0  0
   11.4928   23.4184    4.5987 C   0  0  0  0  0  0  0  0  0  0  0  0
   11.1913   24.4312    5.3157 C   0  0  2  0  0  0  0  0  0  0  0  0
   10.2270   25.3239    4.9156 C   0  0  0  0  0  0  0  0  0  0  0  0
   12.1420   24.7907    6.4557 C   0  0  0  0  0  0  0  0  0  0  0  0
   13.3093   24.8883    6.2928 O   0  0  0  0  0  0  0  0  0  0  0  0
   11.4021   24.9529    7.4878 N   0  0  0  0  0  0  0  0  0  0  0  0
   10.1212   24.9081    7.7849 C   0  0  2  0  0  0  0  0  0  0  0  0
    9.1954   24.5312    7.1318 O   0  0  0  0  0  0  0  0  0  0  0  0
    9.8112   25.7283    9.0015 C   0  0  0  0  0  0  0  0  0  0  0  0
    8.3831   26.0597    8.9928 C   0  0  0  0  0  0  0  0  0  0  0  0
    8.2284   27.5349    8.9702 C   0  0  0  0  0  0  0  0  0  0  0  0
  1  2  1  0
  1  3  1  0
  2  4  1  0
  5  3  1  6
  6  4  1  1
  5  6  1  0
  5  7  1  0
  6  8  1  0
  8  9  1  0
  7 10  1  0
  9 10  1  0
  9 11  1  6
 11 12  2  0
 11 13  1  0
 13 14  1  0
 14 15  1  6
 14 16  1  0
 16 17  1  0
 17 18  1  0
M  END
$$$$
55
     RDKit          3D

 18 20  0  0  0  0  0  0  0  0999 V2000
    8.2693   28.0562    7.8549 C   0  0  0  0  0  0  0  0  0  0  0  0
    9.1542   27.4379    8.6988 C   0  0  0  0  0  0  0  0  0  0  0  0
    8.0088   27.4331    6.6409 C   0  0  2  0  0  0  0  0  0  0  0  0
    7.1009   27.9405    5.7442 O   0  0  0  0  0  0  0  0  0  0  0  0
    9.7532   26.1845    8.4380 C   0  0  0  0  0  0  0  0  0  0  0  0
    9.4504   25.6289    7.2460 C   0  0  0  0  0  0  0  0  0  0  0  0
    8.6875   26.1284    6.4324 C   0  0  0  0  0  0  0  0  0  0  0  0
   10.1272   24.1633    6.8605 C   0  0  0  0  0  0  0  0  0  0  0  0
    6.4942   26.8614    4.9146 C   0  0  0  0  0  0  0  0  0  0  0  0
   10.9900   24.2458    5.8876 N   0  0  0  0  0  0  0  0  0  0  0  0
   11.4763   23.0969    5.3274 C   0  0  0  0  0  0  0  0  0  0  0  0
   10.9270   25.2437    4.7946 C   0  0  0  0  0  0  0  0  0  0  0  0
   11.3359   24.5574    3.4689 C   0  0  1  0  0  0  0  0  0  0  0  0
   11.5063   23.1825    3.8500 C   0  0  2  0  0  0  0  0  0  0  0  0
   10.4621   24.6642    2.4116 N   0  0  0  0  0  0  0  0  0  0  0  0
   11.5766   22.1761    2.8860 C   0  0  0  0  0  0  0  0  0  0  0  0
   10.4267   23.5496    1.5258 C   0  0  0  0  0  0  0  0  0  0  0  0
   10.7468   22.3110    1.8656 N   0  0  0  0  0  0  0  0  0  0  0  0
  1  2  1  0
  1  3  1  0
  3  4  1  1
  2  5  1  0
  5  6  1  0
  3  7  1  0
  6  7  1  0
  6  8  1  0
  4  9  1  0
  8 10  1  0
 10 11  1  0
 10 12  1  0
 13 12  1  1
 14 11  1  1
 13 14  1  0
 13 15  1  0
 14 16  1  0
 15 17  1  0
 16 18  1  0
 17 18  1  0
M  END
$$$$
56
     RDKit          3D

 18 20  0  0  0  0  0  0  0  0999 V2000
    7.6235   28.1098    7.8805 N   0  0  0  0  0  0  0  0  0  0  0  0
    8.7563   27.5902    8.4482 C   0  0  0  0  0  0  0  0  0  0  0  0
    7.2671   27.5450    6.7347 C   0  0  0  0  0  0  0  0  0  0  0  0
    9.4453   26.5172    7.9842 C   0  0  1  0  0  0  0  0  0  0  0  0
    7.9301   26.6109    6.2767 N   0  0  0  0  0  0  0  0  0  0  0  0
    8.9986   26.0311    6.9495 C   0  0  1  0  0  0  0  0  0  0  0  0
    9.6573   24.9359    6.2158 C   0  0  2  0  0  0  0  0  0  0  0  0
   10.8749   24.6672    6.4633 C   0  0  1  0  0  0  0  0  0  0  0  0
    9.0189   24.2023    5.1102 C   0  0  0  0  0  0  0  0  0  0  0  0
    9.7141   23.2857    4.4758 C   0  0  2  0  0  0  0  0  0  0  0  0
   11.6828   25.3213    7.6217 C   0  0  0  0  0  0  0  0  0  0  0  0
   11.6283   23.5653    6.0008 C   0  0  0  0  0  0  0  0  0  0  0  0
   10.6551   26.0032    8.5887 C   0  0  0  0  0  0  0  0  0  0  0  0
    9.2323   22.5624    3.3724 O   0  0  0  0  0  0  0  0  0  0  0  0
    8.8702   23.2521    2.2611 C   0  0  0  0  0  0  0  0  0  0  0  0
    9.7375   22.7299    1.2048 C   0  0  0  0  0  0  0  0  0  0  0  0
   10.7064   21.6760    1.6439 C   0  0  0  0  0  0  0  0  0  0  0  0
   11.0464   22.7959    4.9207 C   0  0  0  0  0  0  0  0  0  0  0  0
  1  2  1  0
  1  3  1  0
  4  2  1  6
  3  5  1  0
  4  6  1  0
  6  5  1  6
  6  7  1  0
  7  8  1  0
  7  9  1  6
  9 10  1  0
  8 11  1  1
  8 12  1  0
  4 13  1  0
 11 13  1  0
 10 14  1  1
 14 15  1  0
 15 16  1  0
 16 17  1  0
 10 18  1  0
 12 18  1  0
M  END
$$$$
57
     RDKit          3D

 18 19  0  0  0  0  0  0  0  0999 V2000
    7.6235   28.1098    7.8805 N   0  0  0  0  0  0  0  0  0  0  0  0
    8.7563   27.5902    8.4482 C   0  0  0  0  0  0  0  0  0  0  0  0
    7.2671   27.5450    6.7347 C   0  0  0  0  0  0  0  0  0  0  0  0
    9.4453   26.5172    7.9842 C   0  0  0  0  0  0  0  0  0  0  0  0
    7.9301   26.6109    6.2767 N   0  0  0  0  0  0  0  0  0  0  0  0
    8.9986   26.0311    6.9495 C   0  0  1  0  0  0  0  0  0  0  0  0
    9.6573   24.9359    6.2158 C   0  0  2  0  0  0  0  0  0  0  0  0
   10.8749   24.6672    6.4633 C   0  0  0  0  0  0  0  0  0  0  0  0
    9.0189   24.2023    5.1102 C   0  0  0  0  0  0  0  0  0  0  0  0
    9.7141   23.2857    4.4758 C   0  0  0  0  0  0  0  0  0  0  0  0
   11.6412   23.6532    5.8643 C   0  0  0  0  0  0  0  0  0  0  0  0
    9.1594   22.5636    3.3877 O   0  0  0  0  0  0  0  0  0  0  0  0
    8.7853   23.2238    2.2829 C   0  0  0  0  0  0  0  0  0  0  0  0
   11.0923   22.9728    4.8735 C   0  0  0  0  0  0  0  0  0  0  0  0
    7.7105   23.6857    2.2488 F   0  0  0  0  0  0  0  0  0  0  0  0
    9.7078   24.4267    2.0374 F   0  0  0  0  0  0  0  0  0  0  0  0
   11.7642   21.9178    4.2232 C   0  0  0  0  0  0  0  0  0  0  0  0
    8.9811   22.3418    1.1394 F   0  0  0  0  0  0  0  0  0  0  0  0
  1  2  1  0
  1  3  1  0
  2  4  1  0
  3  5  1  0
  6  4  1  6
  5  6  1  0
  6  7  1  0
  7  8  1  6
  7  9  1  0
  9 10  1  0
  8 11  1  0
 10 12  1  0
 12 13  1  0
 10 14  1  0
 11 14  1  0
 13 15  1  0
 13 16  1  0
 14 17  1  0
 13 18  1  0
M  END
$$$$
58
     RDKit          3D

 18 20  0  0  0  0  0  0  0  0999 V2000
    9.6379   21.4497    1.6912 C   0  0  0  0  0  0  0  0  0  0  0  0
    8.6721   22.3973    1.9063 C   0  0  0  0  0  0  0  0  0  0  0  0
    9.0560   23.4995    2.7049 C   0  0  2  0  0  0  0  0  0  0  0  0
   10.9268   21.7103    2.1345 C   0  0  0  0  0  0  0  0  0  0  0  0
   10.2659   23.6360    3.2644 C   0  0  1  0  0  0  0  0  0  0  0  0
   11.2160   22.6838    2.9629 C   0  0  0  0  0  0  0  0  0  0  0  0
   10.5540   24.9114    4.0744 C   0  0  1  0  0  0  0  0  0  0  0  0
    9.3858   25.3954    4.6074 C   0  0  2  0  0  0  0  0  0  0  0  0
    9.4692   26.1600    5.7550 N   0  0  0  0  0  0  0  0  0  0  0  0
    8.4110   24.5765    3.5236 C   0  0  0  0  0  0  0  0  0  0  0  0
   11.8083   25.2353    4.6029 C   0  0  0  0  0  0  0  0  0  0  0  0
    8.2232   26.6127    6.1833 C   0  0  0  0  0  0  0  0  0  0  0  0
   11.8343   25.8105    5.8437 N   0  0  0  0  0  0  0  0  0  0  0  0
   13.0511   25.3020    3.9536 N   0  0  0  0  0  0  0  0  0  0  0  0
   10.5699   26.1278    6.4666 C   0  0  0  0  0  0  0  0  0  0  0  0
   10.5226   26.7320    7.6910 O   0  0  0  0  0  0  0  0  0  0  0  0
    7.8023   26.1820    7.6026 C   0  0  0  0  0  0  0  0  0  0  0  0
    8.0867   27.3340    8.4296 N   0  0  0  0  0  0  0  0  0  0  0  0
  1  2  1  0
  3  2  1  1
  1  4  1  0
  3  5  1  0
  4  6  1  0
  5  6  1  6
  5  7  1  0
  7  8  1  0
  8  9  1  0
  3 10  1  0
  8 10  1  1
  7 11  1  1
  9 12  1  0
 11 13  1  0
 11 14  2  0
  9 15  1  0
 13 15  1  0
 15 16  2  0
 12 17  1  0
 17 18  1  0
M  END
$$$$
59
     RDKit          3D

 18 19  0  0  0  0  0  0  0  0999 V2000
    8.2898   22.7720    2.1253 C   0  0  0  0  0  0  0  0  0  0  0  0
    8.5218   23.9739    2.6615 C   0  0  0  0  0  0  0  0  0  0  0  0
    9.5655   22.0975    1.8213 C   0  0  0  0  0  0  0  0  0  0  0  0
    9.7184   24.4721    3.1590 C   0  0  0  0  0  0  0  0  0  0  0  0
   10.8906   23.6779    2.9164 C   0  0  0  0  0  0  0  0  0  0  0  0
   10.7454   22.4578    2.2424 C   0  0  0  0  0  0  0  0  0  0  0  0
    9.9044   25.7042    3.8699 N   0  0  0  0  0  0  0  0  0  0  0  0
    9.1769   25.8314    5.0240 C   0  0  2  0  0  0  0  0  0  0  0  0
    8.1787   26.6779    5.1319 C   0  0  0  0  0  0  0  0  0  0  0  0
    9.6225   25.2558    6.2390 C   0  0  1  0  0  0  0  0  0  0  0  0
   10.7750   24.4075    6.3281 C   0  0  0  0  0  0  0  0  0  0  0  0
    7.7192   26.9578    6.4129 C   0  0  0  0  0  0  0  0  0  0  0  0
    9.4396   20.5656    0.9726 Cl  0  0  0  0  0  0  0  0  0  0  0  0
    9.0144   25.7174    7.4252 C   0  0  0  0  0  0  0  0  0  0  0  0
   11.6896   24.5023    7.1978 O   0  0  0  0  0  0  0  0  0  0  0  0
   10.7824   23.1926    5.6691 O   0  0  0  0  0  0  0  0  0  0  0  0
    8.1229   26.4680    7.4673 C   0  0  0  0  0  0  0  0  0  0  0  0
    7.4479   26.9447    8.7540 C   0  0  0  0  0  0  0  0  0  0  0  0
  1  2  1  0
  1  3  1  0
  2  4  1  0
  4  5  1  0
  3  6  1  0
  5  6  1  0
  4  7  1  0
  8  7  1  1
  8  9  1  0
  8 10  1  0
 10 11  1  1
  9 12  1  0
  3 13  1  0
 10 14  1  0
 11 15  2  0
 11 16  1  0
 12 17  1  0
 14 17  1  0
 17 18  1  0
M  END
$$$$
6
     RDKit          3D

 14 16  0  0  0  0  0  0  0  0999 V2000
    7.8042   23.4530    2.0953 C   0  0  0  0  0  0  0  0  0  0  0  0
    8.6685   22.7031    2.0448 C   0  0  0  0  0  0  0  0  0  0  0  0
    7.9344   24.6610    2.9174 C   0  0  0  0  0  0  0  0  0  0  0  0
    9.9893   22.7766    2.6426 C   0  0  1  0  0  0  0  0  0  0  0  0
    9.1521   24.7567    3.6101 C   0  0  0  0  0  0  0  0  0  0  0  0
   10.1335   23.8039    3.4696 C   0  0  0  0  0  0  0  0  0  0  0  0
   11.0317   21.7245    2.4535 C   0  0  0  0  0  0  0  0  0  0  0  0
   12.1777   21.9711    3.0768 C   0  0  0  0  0  0  0  0  0  0  0  0
   12.1190   22.9267    4.0505 C   0  0  1  0  0  0  0  0  0  0  0  0
   13.4048   23.0771    4.9060 C   0  0  0  0  0  0  0  0  0  0  0  0
   11.2569   23.9430    4.2421 C   0  0  1  0  0  0  0  0  0  0  0  0
   11.4128   25.2220    5.0146 C   0  0  0  0  0  0  0  0  0  0  0  0
   13.4291   24.0646    5.7138 N   0  0  0  0  0  0  0  0  0  0  0  0
   12.5650   25.1132    5.8825 C   0  0  0  0  0  0  0  0  0  0  0  0
  1  2  1  0
  1  3  1  0
  4  2  1  1
  3  5  1  0
  4  6  1  0
  5  6  1  0
  4  7  1  0
  7  8  1  0
  9  8  1  6
  9 10  1  0
  6 11  1  0
  9 11  1  0
 11 12  1  6
 10 13  1  0
 12 14  1  0
 13 14  1  0
M  END
$$$$
60
     RDKit          3D

 18 20  0  0  0  0  0  0  0  0999 V2000
    8.7965   22.1129    1.8528 C   0  0  0  0  0  0  0  0  0  0  0  0
    9.8574   21.5603    2.2234 C   0  0  0  0  0  0  0  0  0  0  0  0
    8.8802   23.4877    2.2044 C   0  0  0  0  0  0  0  0  0  0  0  0
    9.7801   23.8495    2.8783 C   0  0  2  0  0  0  0  0  0  0  0  0
   10.9529   23.2087    3.3375 C   0  0  0  0  0  0  0  0  0  0  0  0
    9.7524   25.2742    3.6943 C   0  0  0  0  0  0  0  0  0  0  0  0
   11.9184   23.8371    4.1971 C   0  0  0  0  0  0  0  0  0  0  0  0
   11.0329   21.9395    2.8431 C   0  0  0  0  0  0  0  0  0  0  0  0
   11.6380   24.7819    4.8738 N   0  0  0  0  0  0  0  0  0  0  0  0
   10.4522   25.4122    4.7042 C   0  0  2  0  0  0  0  0  0  0  0  0
    9.7464   25.9736    5.8253 N   0  0  0  0  0  0  0  0  0  0  0  0
   10.2377   25.7892    7.1162 C   0  0  0  0  0  0  0  0  0  0  0  0
    8.6326   26.7151    5.6972 C   0  0  0  0  0  0  0  0  0  0  0  0
   11.1640   24.8938    7.3211 O   0  0  0  0  0  0  0  0  0  0  0  0
    9.3968   26.1474    8.2235 C   0  0  0  0  0  0  0  0  0  0  0  0
    8.5835   27.2880    7.6769 C   0  0  2  0  0  0  0  0  0  0  0  0
    7.8455   27.7895    8.9062 N   0  0  0  0  0  0  0  0  0  0  0  0
    8.0966   27.3155    6.7222 C   0  0  0  0  0  0  0  0  0  0  0  0
  1  2  1  0
  1  3  1  0
  4  3  1  1
  4  5  1  0
  4  6  1  0
  5  7  1  0
  2  8  1  0
  5  8  1  0
  7  9  1  0
  6 10  1  0
  9 10  1  0
 10 11  1  1
 11 12  1  0
 11 13  1  0
 12 14  2  0
 12 15  1  0
 15 16  1  0
 16 17  1  1
 13 18  1  0
 16 18  1  0
M  END
$$$$
61
     RDKit          3D

 18 20  0  0  0  0  0  0  0  0999 V2000
    8.8442   27.9866    8.3990 C   0  0  0  0  0  0  0  0  0  0  0  0
    8.3862   27.7454    7.2005 C   0  0  0  0  0  0  0  0  0  0  0  0
    8.7989   26.4306    6.5638 C   0  0  0  0  0  0  0  0  0  0  0  0
    9.5216   26.7657    9.0399 C   0  0  0  0  0  0  0  0  0  0  0  0
    9.7883   25.7136    8.2595 C   0  0  0  0  0  0  0  0  0  0  0  0
    9.3981   25.4869    7.1207 C   0  0  0  0  0  0  0  0  0  0  0  0
    9.6287   24.3461    6.2835 C   0  0  0  0  0  0  0  0  0  0  0  0
   10.5517   23.4319    6.8053 O   0  0  0  0  0  0  0  0  0  0  0  0
    9.5637   24.1614    5.0012 N   0  0  0  0  0  0  0  0  0  0  0  0
    8.7924   24.8977    4.1356 C   0  0  0  0  0  0  0  0  0  0  0  0
   10.3431   23.0046    4.3347 C   0  0  1  0  0  0  0  0  0  0  0  0
    9.1891   24.8651    2.7994 C   0  0  2  0  0  0  0  0  0  0  0  0
    8.1010   25.1744    1.8524 O   0  0  0  0  0  0  0  0  0  0  0  0
    9.7735   23.5179    2.4058 C   0  0  1  0  0  0  0  0  0  0  0  0
   10.9478   22.9665    2.0180 C   0  0  0  0  0  0  0  0  0  0  0  0
   11.5828   22.1837    2.9004 C   0  0  0  0  0  0  0  0  0  0  0  0
    8.6443   22.7375    1.8615 C   0  0  0  0  0  0  0  0  0  0  0  0
   11.5569   22.8165    4.0768 C   0  0  0  0  0  0  0  0  0  0  0  0
  1  2  1  0
  2  3  1  0
  1  4  1  0
  4  5  1  0
  3  6  1  0
  5  6  1  0
  6  7  1  0
  7  8  2  0
  7  9  1  0
  9 10  1  0
  9 11  1  0
 10 12  1  0
 12 13  1  6
 11 14  1  0
 12 14  1  0
 14 15  1  0
 15 16  1  0
 14 17  1  6
 11 18  1  6
 16 18  1  0
M  END
$$$$
62
     RDKit          3D

 18 19  0  0  0  0  0  0  0  0999 V2000
   13.1674   25.1983    4.4733 O   0  0  0  0  0  0  0  0  0  0  0  0
   12.3027   24.3460    4.8068 C   0  0  1  0  0  0  0  0  0  0  0  0
   11.4678   24.6899    5.8125 C   0  0  1  0  0  0  0  0  0  0  0  0
   12.0401   23.4256    3.7194 C   0  0  0  0  0  0  0  0  0  0  0  0
   10.7448   22.6440    3.9408 C   0  0  1  0  0  0  0  0  0  0  0  0
    9.9888   22.9137    5.0621 C   0  0  0  0  0  0  0  0  0  0  0  0
   10.3848   23.8894    5.9294 C   0  0  2  0  0  0  0  0  0  0  0  0
   10.3136   21.7909    2.8501 C   0  0  0  0  0  0  0  0  0  0  0  0
   11.9569   25.6721    6.6591 O   0  0  0  0  0  0  0  0  0  0  0  0
    9.5946   24.3973    7.0419 O   0  0  0  0  0  0  0  0  0  0  0  0
    9.3013   25.6341    7.3949 C   0  0  0  0  0  0  0  0  0  0  0  0
    9.0371   21.4591    2.7932 O   0  0  0  0  0  0  0  0  0  0  0  0
   11.0371   21.5454    1.7916 O   0  0  0  0  0  0  0  0  0  0  0  0
    8.0293   26.0631    6.8003 C   0  0  0  0  0  0  0  0  0  0  0  0
    9.7681   26.3483    8.4415 C   0  0  0  0  0  0  0  0  0  0  0  0
    9.0198   27.6160    8.7089 C   0  0  0  0  0  0  0  0  0  0  0  0
    8.0201   27.9236    7.9862 C   0  0  0  0  0  0  0  0  0  0  0  0
    7.4913   27.1946    7.0526 C   0  0  0  0  0  0  0  0  0  0  0  0
  2  1  1  6
  2  3  1  0
  2  4  1  0
  4  5  1  0
  5  6  1  0
  3  7  1  0
  6  7  1  0
  5  8  1  6
  3  9  1  1
  7 10  1  6
 10 11  1  0
  8 12  2  0
  8 13  1  0
 11 14  1  0
 11 15  1  0
 15 16  1  0
 16 17  1  0
 14 18  1  0
 17 18  1  0
M  END
$$$$
63
     RDKit          3D

 18 19  0  0  0  0  0  0  0  0999 V2000
   12.4722   24.9936    4.1672 N   0  0  0  0  0  0  0  0  0  0  0  0
   12.1815   24.8178    5.3501 C   0  0  0  0  0  0  0  0  0  0  0  0
   11.6007   24.2540    3.2600 C   0  0  1  0  0  0  0  0  0  0  0  0
   10.8132   24.5310    5.6441 N   0  0  0  0  0  0  0  0  0  0  0  0
   10.4293   24.0751    4.2678 C   0  0  2  0  0  0  0  0  0  0  0  0
   10.0212   25.1386    6.4561 C   0  0  0  0  0  0  0  0  0  0  0  0
    9.1827   23.4777    4.0381 C   0  0  0  0  0  0  0  0  0  0  0  0
    9.0375   23.1212    2.7339 C   0  0  0  0  0  0  0  0  0  0  0  0
    7.8603   22.3947    2.2147 F   0  0  0  0  0  0  0  0  0  0  0  0
   11.4013   23.9410    2.0491 C   0  0  0  0  0  0  0  0  0  0  0  0
    9.8933   23.3317    1.5387 C   0  0  0  0  0  0  0  0  0  0  0  0
    9.5064   26.2850    5.9725 O   0  0  0  0  0  0  0  0  0  0  0  0
   10.0480   25.1783    7.9754 C   0  0  0  0  0  0  0  0  0  0  0  0
   12.9976   25.1565    6.3713 O   0  0  0  0  0  0  0  0  0  0  0  0
    9.1064   26.0806    8.7001 C   0  0  0  0  0  0  0  0  0  0  0  0
    7.8903   26.0824    8.5935 C   0  0  0  0  0  0  0  0  0  0  0  0
    7.1741   27.3814    8.8785 O   0  0  0  0  0  0  0  0  0  0  0  0
    7.0925   25.3052    7.9060 O   0  0  0  0  0  0  0  0  0  0  0  0
  1  2  1  0
  1  3  1  0
  2  4  1  0
  3  5  1  0
  4  5  1  0
  4  6  1  0
  5  7  1  1
  7  8  1  0
  8  9  1  0
  3 10  1  6
  8 11  1  0
 10 11  1  0
  6 12  2  0
  6 13  1  0
  2 14  2  0
 13 15  1  0
 15 16  1  0
 16 17  1  0
 16 18  2  0
M  END
$$$$
64
     RDKit          3D

 18 21  0  0  0  0  0  0  0  0999 V2000
    9.9939   21.3215    1.9478 C   0  0  0  0  0  0  0  0  0  0  0  0
    8.8172   21.9281    1.8069 C   0  0  0  0  0  0  0  0  0  0  0  0
    8.7951   23.1929    2.1348 C   0  0  1  0  0  0  0  0  0  0  0  0
    7.5383   24.0046    1.9530 C   0  0  0  0  0  0  0  0  0  0  0  0
    9.7411   23.7519    3.0058 C   0  0  1  0  0  0  0  0  0  0  0  0
    6.4912   23.7562    1.5723 O   0  0  0  0  0  0  0  0  0  0  0  0
    7.6512   25.4715    2.5099 N   0  0  0  0  0  0  0  0  0  0  0  0
   10.7949   22.9820    3.0393 C   0  0  2  0  0  0  0  0  0  0  0  0
    8.6811   25.8279    3.1834 C   0  0  1  0  0  0  0  0  0  0  0  0
    8.5148   27.1132    3.6693 N   0  0  0  0  0  0  0  0  0  0  0  0
    9.7211   24.9914    3.4644 N   0  0  0  0  0  0  0  0  0  0  0  0
   11.0838   21.8416    2.5543 C   0  0  0  0  0  0  0  0  0  0  0  0
   11.7124   23.7849    4.0919 C   0  0  1  0  0  0  0  0  0  0  0  0
   12.9046   23.7793    4.4971 C   0  0  0  0  0  0  0  0  0  0  0  0
   10.6628   24.9376    4.3597 C   0  0  2  0  0  0  0  0  0  0  0  0
   10.2638   25.0077    5.8083 C   0  0  0  0  0  0  0  0  0  0  0  0
   11.2761   24.4533    6.6910 C   0  0  0  0  0  0  0  0  0  0  0  0
   12.7143   23.8901    6.1216 C   0  0  0  0  0  0  0  0  0  0  0  0
  1  2  1  0
  3  2  1  1
  3  4  1  0
  3  5  1  0
  4  6  2  0
  4  7  1  0
  5  8  1  0
  7  9  1  0
  9 10  1  1
  5 11  1  6
  9 11  1  0
  1 12  1  0
  8 12  1  1
  8 13  1  0
 13 14  1  6
 11 15  1  0
 13 15  1  0
 15 16  1  1
 16 17  1  0
 14 18  1  0
 17 18  1  0
M  END
$$$$
65
     RDKit          3D

 19 21  0  0  0  0  0  0  0  0999 V2000
    8.7965   22.1129    1.8528 C   0  0  0  0  0  0  0  0  0  0  0  0
    9.8574   21.5603    2.2234 C   0  0  0  0  0  0  0  0  0  0  0  0
    8.8802   23.4877    2.2044 C   0  0  0  0  0  0  0  0  0  0  0  0
    9.7801   23.8495    2.8783 C   0  0  2  0  0  0  0  0  0  0  0  0
   10.9529   23.2087    3.3375 C   0  0  0  0  0  0  0  0  0  0  0  0
    9.7524   25.2742    3.6943 C   0  0  0  0  0  0  0  0  0  0  0  0
   11.9184   23.8371    4.1971 C   0  0  0  0  0  0  0  0  0  0  0  0
   11.0329   21.9395    2.8431 C   0  0  0  0  0  0  0  0  0  0  0  0
   11.6380   24.7819    4.8738 N   0  0  0  0  0  0  0  0  0  0  0  0
   10.4522   25.4122    4.7042 C   0  0  2  0  0  0  0  0  0  0  0  0
    9.7464   25.9736    5.8253 N   0  0  0  0  0  0  0  0  0  0  0  0
   10.2377   25.7892    7.1162 C   0  0  2  0  0  0  0  0  0  0  0  0
    8.6326   26.7151    5.6972 C   0  0  0  0  0  0  0  0  0  0  0  0
    8.0337   26.9582    4.6366 O   0  0  0  0  0  0  0  0  0  0  0  0
   11.1174   24.8612    7.3372 O   0  0  0  0  0  0  0  0  0  0  0  0
    9.5065   26.2620    8.2610 C   0  0  0  0  0  0  0  0  0  0  0  0
    8.2012   26.9661    7.0396 C   0  0  1  0  0  0  0  0  0  0  0  0
    7.0505   27.6651    7.5147 C   0  0  0  0  0  0  0  0  0  0  0  0
    7.0714   27.4949    8.9559 O   0  0  0  0  0  0  0  0  0  0  0  0
  1  2  1  0
  1  3  1  0
  4  3  1  1
  4  5  1  0
  4  6  1  0
  5  7  1  0
  2  8  1  0
  5  8  1  0
  7  9  1  0
  6 10  1  0
  9 10  1  0
 10 11  1  1
 11 12  1  0
 11 13  1  0
 13 14  2  0
 12 15  1  1
 12 16  1  0
 13 17  1  0
 16 17  1  0
 17 18  1  6
 18 19  1  0
M  END
$$$$
66
     RDKit          3D

 19 21  0  0  0  0  0  0  0  0999 V2000
    6.8884   27.0330    8.2570 C   0  0  0  0  0  0  0  0  0  0  0  0
    8.1262   26.8767    8.8133 C   0  0  0  0  0  0  0  0  0  0  0  0
    8.9435   25.8558    8.3217 C   0  0  2  0  0  0  0  0  0  0  0  0
   10.2755   25.7337    8.5748 C   0  0  0  0  0  0  0  0  0  0  0  0
    6.4503   26.3269    7.1379 N   0  0  0  0  0  0  0  0  0  0  0  0
    8.5997   25.5217    6.8392 C   0  0  2  0  0  0  0  0  0  0  0  0
    7.3820   25.6538    6.3999 C   0  0  0  0  0  0  0  0  0  0  0  0
   11.0461   25.0436    7.7000 C   0  0  0  0  0  0  0  0  0  0  0  0
    9.7423   24.8261    6.3466 C   0  0  2  0  0  0  0  0  0  0  0  0
    9.9016   24.2760    5.1419 C   0  0  0  0  0  0  0  0  0  0  0  0
    9.1377   24.2902    4.1962 O   0  0  0  0  0  0  0  0  0  0  0  0
   11.0937   23.5014    4.8230 C   0  0  0  0  0  0  0  0  0  0  0  0
    9.3283   23.7848    2.9638 C   0  0  1  0  0  0  0  0  0  0  0  0
   10.3562   22.9085    2.7103 C   0  0  1  0  0  0  0  0  0  0  0  0
    8.1606   24.0273    1.8994 C   0  0  0  0  0  0  0  0  0  0  0  0
    7.8594   22.9404    1.1623 F   0  0  0  0  0  0  0  0  0  0  0  0
   10.5435   22.2445    1.3933 C   0  0  0  0  0  0  0  0  0  0  0  0
   11.3075   22.8273    3.6697 C   0  0  0  0  0  0  0  0  0  0  0  0
    7.6854   25.2267    1.9463 C   0  0  0  0  0  0  0  0  0  0  0  0
  1  2  1  0
  3  2  1  6
  3  4  1  0
  1  5  1  0
  3  6  1  0
  5  7  1  0
  6  7  1  1
  4  8  1  0
  6  9  1  0
  8  9  1  0
  9 10  1  6
 10 11  1  0
 10 12  1  0
 11 13  1  0
 13 14  1  0
 13 15  1  1
 15 16  1  0
 14 17  1  6
 12 18  1  0
 14 18  1  0
 15 19  1  0
M  END
$$$$
67
     RDKit          3D

 19 20  0  0  0  0  0  0  0  0999 V2000
   12.4639   24.7520    3.5790 O   0  0  0  0  0  0  0  0  0  0  0  0
   11.8468   23.9788    4.0283 C   0  0  1  0  0  0  0  0  0  0  0  0
   11.1890   24.2353    5.2162 C   0  0  2  0  0  0  0  0  0  0  0  0
   10.6792   23.5342    3.1036 C   0  0  2  0  0  0  0  0  0  0  0  0
   12.0818   24.3769    6.2756 O   0  0  0  0  0  0  0  0  0  0  0  0
    9.9317   24.0635    5.5252 C   0  0  2  0  0  0  0  0  0  0  0  0
    9.4902   23.6470    4.0897 O   0  0  0  0  0  0  0  0  0  0  0  0
    9.3800   24.9074    6.2510 N   0  0  0  0  0  0  0  0  0  0  0  0
   10.6070   22.3235    2.3864 C   0  0  0  0  0  0  0  0  0  0  0  0
    9.4551   22.1949    1.5582 C   0  0  0  0  0  0  0  0  0  0  0  0
    9.2888   21.0816    0.7982 O   0  0  0  0  0  0  0  0  0  0  0  0
    8.4175   25.6640    6.1169 C   0  0  2  0  0  0  0  0  0  0  0  0
    9.9281   25.1498    7.6110 C   0  0  0  0  0  0  0  0  0  0  0  0
    7.6362   25.9087    5.0917 O   0  0  0  0  0  0  0  0  0  0  0  0
    9.4217   26.2024    8.2313 C   0  0  2  0  0  0  0  0  0  0  0  0
    7.6306   27.0280    4.2221 C   0  0  0  0  0  0  0  0  0  0  0  0
    8.4739   26.8470    7.1455 C   0  0  2  0  0  0  0  0  0  0  0  0
    7.1410   27.3505    7.7482 O   0  0  0  0  0  0  0  0  0  0  0  0
    9.5276   26.9266    9.3468 O   0  0  0  0  0  0  0  0  0  0  0  0
  2  1  1  6
  2  3  1  0
  2  4  1  0
  3  5  1  1
  3  6  1  0
  4  7  1  0
  6  7  1  0
  6  8  1  6
  4  9  1  1
  9 10  1  0
 10 11  1  0
  8 12  1  0
  8 13  1  0
 12 14  1  6
 13 15  1  0
 14 16  1  0
 12 17  1  0
 15 17  1  0
 17 18  1  1
 15 19  1  6
M  END
$$$$
68
     RDKit          3D

 19 20  0  0  0  0  0  0  0  0999 V2000
    7.8042   23.4530    2.0953 C   0  0  0  0  0  0  0  0  0  0  0  0
    8.6685   22.7031    2.0448 C   0  0  0  0  0  0  0  0  0  0  0  0
    7.9344   24.6610    2.9174 C   0  0  0  0  0  0  0  0  0  0  0  0
    9.9893   22.7766    2.6426 C   0  0  1  0  0  0  0  0  0  0  0  0
    9.1521   24.7567    3.6101 C   0  0  0  0  0  0  0  0  0  0  0  0
   10.1335   23.8039    3.4696 C   0  0  2  0  0  0  0  0  0  0  0  0
   11.0317   21.7245    2.4535 C   0  0  0  0  0  0  0  0  0  0  0  0
   12.1777   21.9711    3.0768 C   0  0  0  0  0  0  0  0  0  0  0  0
   12.1190   22.9267    4.0505 C   0  0  1  0  0  0  0  0  0  0  0  0
   13.4048   23.0771    4.9060 C   0  0  0  0  0  0  0  0  0  0  0  0
   11.2181   24.0355    4.0671 C   0  0  0  0  0  0  0  0  0  0  0  0
   11.5381   25.3157    4.7555 N   0  0  0  0  0  0  0  0  0  0  0  0
   11.2159   25.2304    6.0436 C   0  0  0  0  0  0  0  0  0  0  0  0
   12.1170   25.0522    6.8546 O   0  0  0  0  0  0  0  0  0  0  0  0
    9.9839   25.5703    6.5628 N   0  0  0  0  0  0  0  0  0  0  0  0
    9.6413   25.6846    7.9764 C   0  0  0  0  0  0  0  0  0  0  0  0
    8.9776   26.9891    8.2384 C   0  0  0  0  0  0  0  0  0  0  0  0
    8.0599   27.1381    9.0577 C   0  0  0  0  0  0  0  0  0  0  0  0
    9.1436   28.0687    7.2904 O   0  0  0  0  0  0  0  0  0  0  0  0
  1  2  1  0
  1  3  1  0
  4  2  1  1
  3  5  1  0
  4  6  1  0
  6  5  1  6
  4  7  1  0
  7  8  1  0
  8  9  1  0
  9 10  1  6
  6 11  1  0
  9 11  1  0
 11 12  1  0
 12 13  1  0
 13 14  2  0
 13 15  1  0
 15 16  1  0
 16 17  1  0
 17 18  1  0
 17 19  2  0
M  END
$$$$
69
     RDKit          3D

 19 20  0  0  0  0  0  0  0  0999 V2000
    8.7939   22.3806    1.4719 C   0  0  0  0  0  0  0  0  0  0  0  0
    9.7789   21.6621    1.9297 C   0  0  0  0  0  0  0  0  0  0  0  0
    8.7068   23.5248    2.1621 C   0  0  0  0  0  0  0  0  0  0  0  0
   10.7034   21.9382    2.8236 C   0  0  0  0  0  0  0  0  0  0  0  0
    9.6108   23.8035    3.1049 C   0  0  1  0  0  0  0  0  0  0  0  0
   10.6269   23.0419    3.4746 C   0  0  1  0  0  0  0  0  0  0  0  0
    9.5355   25.1945    3.7775 N   0  0  0  0  0  0  0  0  0  0  0  0
   11.4928   23.4184    4.5987 C   0  0  0  0  0  0  0  0  0  0  0  0
   11.1913   24.4312    5.3157 C   0  0  2  0  0  0  0  0  0  0  0  0
   10.2270   25.3239    4.9156 C   0  0  0  0  0  0  0  0  0  0  0  0
   12.1420   24.7907    6.4557 C   0  0  0  0  0  0  0  0  0  0  0  0
   13.3093   24.8883    6.2928 O   0  0  0  0  0  0  0  0  0  0  0  0
   11.4021   24.9529    7.4878 N   0  0  0  0  0  0  0  0  0  0  0  0
   10.1212   24.9081    7.7849 C   0  0  2  0  0  0  0  0  0  0  0  0
    9.1954   24.5312    7.1318 O   0  0  0  0  0  0  0  0  0  0  0  0
    9.8112   25.7283    9.0015 C   0  0  0  0  0  0  0  0  0  0  0  0
    9.5511   27.1144    8.6802 C   0  0  0  0  0  0  0  0  0  0  0  0
    8.2459   27.5984    9.0193 C   0  0  0  0  0  0  0  0  0  0  0  0
    7.2490   27.4467    8.0115 N   0  0  0  0  0  0  0  0  0  0  0  0
  1  2  1  0
  1  3  1  0
  2  4  1  0
  5  3  1  6
  6  4  1  1
  5  6  1  0
  5  7  1  0
  6  8  1  0
  8  9  1  0
  7 10  1  0
  9 10  1  0
  9 11  1  6
 11 12  2  0
 11 13  1  0
 13 14  1  0
 14 15  1  6
 14 16  1  0
 16 17  1  0
 17 18  1  0
 18 19  1  0
M  END
$$$$
7
     RDKit          3D

 14 14  0  0  0  0  0  0  0  0999 V2000
    8.8442   27.9866    8.3990 C   0  0  0  0  0  0  0  0  0  0  0  0
    8.3862   27.7454    7.2005 C   0  0  0  0  0  0  0  0  0  0  0  0
    8.7989   26.4306    6.5638 C   0  0  0  0  0  0  0  0  0  0  0  0
    9.5216   26.7657    9.0399 C   0  0  0  0  0  0  0  0  0  0  0  0
    9.7883   25.7136    8.2595 C   0  0  0  0  0  0  0  0  0  0  0  0
    9.4207   25.5619    7.2003 C   0  0  0  0  0  0  0  0  0  0  0  0
    9.6377   24.3796    6.2810 C   0  0  0  0  0  0  0  0  0  0  0  0
    9.5500   24.2747    5.0689 N   0  0  0  0  0  0  0  0  0  0  0  0
   10.8011   23.5713    6.8330 O   0  0  0  0  0  0  0  0  0  0  0  0
   10.1349   23.1490    4.2452 C   0  0  0  0  0  0  0  0  0  0  0  0
    9.5183   22.9780    3.0359 C   0  0  0  0  0  0  0  0  0  0  0  0
   10.0173   21.8760    2.2399 C   0  0  0  0  0  0  0  0  0  0  0  0
    8.0658   22.8548    2.9631 C   0  0  0  0  0  0  0  0  0  0  0  0
   10.0045   24.3337    2.3738 C   0  0  0  0  0  0  0  0  0  0  0  0
  1  2  1  0
  2  3  1  0
  1  4  1  0
  4  5  1  0
  3  6  1  0
  5  6  1  0
  6  7  1  0
  7  8  1  0
  7  9  2  0
  8 10  1  0
 10 11  1  0
 11 12  1  0
 11 13  1  0
 11 14  1  0
M  END
$$$$
70
     RDKit          3D

 19 21  0  0  0  0  0  0  0  0999 V2000
    8.4262   28.2013    8.2709 C   0  0  0  0  0  0  0  0  0  0  0  0
    9.2342   27.2918    8.9477 C   0  0  0  0  0  0  0  0  0  0  0  0
    9.2119   26.1963    8.1698 C   0  0  1  0  0  0  0  0  0  0  0  0
    7.8917   28.2175    7.0914 C   0  0  0  0  0  0  0  0  0  0  0  0
    8.7343   26.0128    6.8865 C   0  0  0  0  0  0  0  0  0  0  0  0
    9.0288   24.7630    6.2307 N   0  0  0  0  0  0  0  0  0  0  0  0
    8.0260   27.0160    6.3335 C   0  0  0  0  0  0  0  0  0  0  0  0
    9.4444   24.7375    4.9446 C   0  0  0  0  0  0  0  0  0  0  0  0
   10.1943   23.5549    4.6639 C   0  0  2  0  0  0  0  0  0  0  0  0
   10.9153   22.9487    5.7370 C   0  0  0  0  0  0  0  0  0  0  0  0
   11.1773   23.5735    3.4587 C   0  0  1  0  0  0  0  0  0  0  0  0
   11.8900   22.1596    5.5672 O   0  0  0  0  0  0  0  0  0  0  0  0
   10.5421   22.9400    2.1939 C   0  0  0  0  0  0  0  0  0  0  0  0
    9.3585   23.5263    1.7211 O   0  0  0  0  0  0  0  0  0  0  0  0
   10.9280   23.6453    6.8327 O   0  0  0  0  0  0  0  0  0  0  0  0
    9.8617   24.3125    7.3439 C   0  0  1  0  0  0  0  0  0  0  0  0
    9.7677   25.0094    8.4897 C   0  0  0  0  0  0  0  0  0  0  0  0
   10.9430   21.8824    1.7228 O   0  0  0  0  0  0  0  0  0  0  0  0
   11.5061   24.9902    2.9985 N   0  0  0  0  0  0  0  0  0  0  0  0
  1  2  1  0
  3  2  1  6
  1  4  1  0
  3  5  1  0
  5  6  1  0
  4  7  1  0
  5  7  1  0
  6  8  1  0
  9  8  1  1
  9 10  1  0
  9 11  1  0
 10 12  2  0
 11 13  1  0
 13 14  1  0
 10 15  1  0
  6 16  1  0
 15 16  1  0
  3 17  1  0
 16 17  1  6
 13 18  2  0
 11 19  1  6
M  END
$$$$
71
     RDKit          3D

 19 22  0  0  0  0  0  0  0  0999 V2000
    7.8785   28.2159    7.0732 C   0  0  0  0  0  0  0  0  0  0  0  0
    8.5001   27.8669    8.2413 C   0  0  0  0  0  0  0  0  0  0  0  0
    9.2319   26.6537    8.4432 C   0  0  0  0  0  0  0  0  0  0  0  0
    9.3168   25.8826    7.3778 C   0  0  1  0  0  0  0  0  0  0  0  0
    8.8046   26.2263    6.3520 C   0  0  2  0  0  0  0  0  0  0  0  0
    8.0687   27.3349    6.0452 C   0  0  0  0  0  0  0  0  0  0  0  0
    8.9787   25.1449    5.3090 C   0  0  2  0  0  0  0  0  0  0  0  0
    9.8122   24.1560    5.7331 C   0  0  1  0  0  0  0  0  0  0  0  0
   10.4190   23.2397    4.6963 C   0  0  0  0  0  0  0  0  0  0  0  0
   11.1450   22.1781    5.0086 O   0  0  0  0  0  0  0  0  0  0  0  0
   10.2628   24.5765    7.5371 S   0  0  0  0  0  0  0  0  0  0  0  0
   10.4081   23.7138    3.5589 N   0  0  0  0  0  0  0  0  0  0  0  0
   11.0261   22.9908    2.3882 C   0  0  0  0  0  0  0  0  0  0  0  0
    9.6721   24.8778    3.1297 C   0  0  1  0  0  0  0  0  0  0  0  0
    9.3000   24.6574    1.7624 C   0  0  0  0  0  0  0  0  0  0  0  0
    8.4609   25.2553    4.0166 C   0  0  0  0  0  0  0  0  0  0  0  0
    9.9614   23.2415    1.3206 C   0  0  2  0  0  0  0  0  0  0  0  0
    9.0495   22.1014    1.3066 C   0  0  0  0  0  0  0  0  0  0  0  0
    9.6565   21.0025    1.4975 O   0  0  0  0  0  0  0  0  0  0  0  0
  1  2  1  0
  2  3  1  0
  4  3  1  6
  4  5  1  0
  1  6  1  0
  5  6  1  1
  5  7  1  0
  7  8  1  0
  8  9  1  0
  9 10  2  0
  4 11  1  0
  8 11  1  6
  9 12  1  0
 12 13  1  0
 12 14  1  0
 14 15  1  6
  7 16  1  6
 14 16  1  0
 13 17  1  0
 15 17  1  0
 17 18  1  1
 18 19  1  0
M  END
$$$$
72
     RDKit          3D

 19 21  0  0  0  0  0  0  0  0999 V2000
    7.6235   28.1098    7.8805 N   0  0  0  0  0  0  0  0  0  0  0  0
    8.7563   27.5902    8.4482 C   0  0  0  0  0  0  0  0  0  0  0  0
    7.2671   27.5450    6.7347 C   0  0  0  0  0  0  0  0  0  0  0  0
    9.4453   26.5172    7.9842 C   0  0  0  0  0  0  0  0  0  0  0  0
    8.9665   25.9436    6.7918 C   0  0  0  0  0  0  0  0  0  0  0  0
    7.8554   26.4759    6.1501 C   0  0  0  0  0  0  0  0  0  0  0  0
    9.6288   24.8174    6.1478 C   0  0  0  0  0  0  0  0  0  0  0  0
   10.5931   24.9027    5.4683 N   0  0  0  0  0  0  0  0  0  0  0  0
    9.2093   23.6304    6.1635 O   0  0  0  0  0  0  0  0  0  0  0  0
   11.2717   23.8352    4.7000 C   0  0  2  0  0  0  0  0  0  0  0  0
   12.3208   24.2394    3.8484 C   0  0  2  0  0  0  0  0  0  0  0  0
   10.2839   23.0509    3.7890 C   0  0  1  0  0  0  0  0  0  0  0  0
   13.2161   24.9917    4.5356 N   0  0  0  0  0  0  0  0  0  0  0  0
   10.2808   23.7744    2.4981 C   0  0  0  0  0  0  0  0  0  0  0  0
   11.4267   24.7582    2.6978 N   0  0  0  0  0  0  0  0  0  0  0  0
    9.5475   23.6662    1.4242 C   0  0  0  0  0  0  0  0  0  0  0  0
    8.9804   22.3310    1.2563 C   0  0  0  0  0  0  0  0  0  0  0  0
    9.0353   21.3856    2.3964 C   0  0  0  0  0  0  0  0  0  0  0  0
    9.8461   21.7079    3.5684 C   0  0  0  0  0  0  0  0  0  0  0  0
  1  2  1  0
  1  3  1  0
  2  4  1  0
  4  5  1  0
  3  6  1  0
  5  6  1  0
  5  7  1  0
  7  8  1  0
  7  9  2  0
 10  8  1  6
 10 11  1  0
 10 12  1  0
 11 13  1  1
 12 14  1  0
 11 15  1  0
 14 15  1  0
 14 16  1  0
 16 17  1  0
 17 18  1  0
 12 19  1  6
 18 19  1  0
M  END
$$$$
73
     RDKit          3D

 19 21  0  0  0  0  0  0  0  0999 V2000
    8.8442   27.9866    8.3990 C   0  0  0  0  0  0  0  0  0  0  0  0
    8.3862   27.7454    7.2005 C   0  0  0  0  0  0  0  0  0  0  0  0
    8.7989   26.4306    6.5638 C   0  0  1  0  0  0  0  0  0  0  0  0
    9.5216   26.7657    9.0399 C   0  0  0  0  0  0  0  0  0  0  0  0
    9.7883   25.7136    8.2595 C   0  0  0  0  0  0  0  0  0  0  0  0
    9.4207   25.5619    7.2003 C   0  0  0  0  0  0  0  0  0  0  0  0
    9.6377   24.3796    6.2810 C   0  0  0  0  0  0  0  0  0  0  0  0
    9.5500   24.2747    5.0689 N   0  0  0  0  0  0  0  0  0  0  0  0
   10.8011   23.5713    6.8330 O   0  0  0  0  0  0  0  0  0  0  0  0
   10.1349   23.1490    4.2452 C   0  0  0  0  0  0  0  0  0  0  0  0
    9.5183   22.9780    3.0359 C   0  0  2  0  0  0  0  0  0  0  0  0
   10.0173   21.8760    2.2399 C   0  0  0  0  0  0  0  0  0  0  0  0
    8.5692   23.7743    2.4732 C   0  0  0  0  0  0  0  0  0  0  0  0
    8.2002   25.0545    3.1215 C   0  0  0  0  0  0  0  0  0  0  0  0
    8.7666   25.0422    4.2622 C   0  0  1  0  0  0  0  0  0  0  0  0
    8.3118   26.2261    5.1100 N   0  0  0  0  0  0  0  0  0  0  0  0
   11.0978   21.1375    2.6164 F   0  0  0  0  0  0  0  0  0  0  0  0
    9.7679   21.9147    0.9825 F   0  0  0  0  0  0  0  0  0  0  0  0
    9.0648   21.0427    2.4985 F   0  0  0  0  0  0  0  0  0  0  0  0
  1  2  1  0
  3  2  1  1
  1  4  1  0
  4  5  1  0
  3  6  1  0
  5  6  1  0
  6  7  1  0
  7  8  1  0
  7  9  2  0
  8 10  1  0
 10 11  1  0
 11 12  1  6
 11 13  1  0
 13 14  1  0
  8 15  1  0
 15 14  1  1
  3 16  1  0
 15 16  1  0
 12 17  1  0
 12 18  1  0
 12 19  1  0
M  END
$$$$
74
     RDKit          3D

 19 21  0  0  0  0  0  0  0  0999 V2000
    7.8785   28.2159    7.0732 C   0  0  0  0  0  0  0  0  0  0  0  0
    8.5001   27.8669    8.2413 C   0  0  0  0  0  0  0  0  0  0  0  0
    9.2319   26.6537    8.4432 C   0  0  0  0  0  0  0  0  0  0  0  0
    9.3168   25.8826    7.3778 C   0  0  0  0  0  0  0  0  0  0  0  0
    8.8046   26.2263    6.3520 C   0  0  0  0  0  0  0  0  0  0  0  0
    8.1773   27.2436    6.0997 C   0  0  0  0  0  0  0  0  0  0  0  0
    8.9615   25.1536    5.0474 C   0  0  0  0  0  0  0  0  0  0  0  0
   10.1603   24.4910    7.6155 C   0  0  0  0  0  0  0  0  0  0  0  0
    8.3858   25.4777    3.9000 C   0  0  0  0  0  0  0  0  0  0  0  0
    7.4010   26.1884    3.7631 O   0  0  0  0  0  0  0  0  0  0  0  0
    8.9455   24.9585    2.6497 N   0  0  0  0  0  0  0  0  0  0  0  0
    8.8052   23.6149    2.3795 C   0  0  0  0  0  0  0  0  0  0  0  0
    7.7894   23.0058    2.0331 O   0  0  0  0  0  0  0  0  0  0  0  0
   10.1082   22.8140    2.7925 C   0  0  0  0  0  0  0  0  0  0  0  0
   10.1657   21.5789    2.0628 C   0  0  0  0  0  0  0  0  0  0  0  0
    9.6793   24.0667    5.4731 C   0  0  2  0  0  0  0  0  0  0  0  0
   10.3473   23.8240    6.5080 C   0  0  0  0  0  0  0  0  0  0  0  0
    9.9717   23.0571    4.2165 N   0  0  0  0  0  0  0  0  0  0  0  0
   11.4490   23.5048    2.4738 C   0  0  0  0  0  0  0  0  0  0  0  0
  1  2  1  0
  2  3  1  0
  3  4  1  0
  4  5  1  0
  1  6  1  0
  5  6  1  0
  5  7  1  0
  4  8  1  0
  7  9  1  0
  9 10  2  0
  9 11  1  0
 11 12  1  0
 12 13  2  0
 12 14  1  0
 14 15  1  0
  7 16  1  0
  8 17  1  0
 16 17  1  6
 14 18  1  0
 16 18  1  0
 14 19  1  0
M  END
$$$$
75
     RDKit          3D

 19 21  0  0  0  0  0  0  0  0999 V2000
   12.4722   24.9936    4.1672 N   0  0  0  0  0  0  0  0  0  0  0  0
   12.1815   24.8178    5.3501 C   0  0  0  0  0  0  0  0  0  0  0  0
   11.6007   24.2540    3.2600 C   0  0  1  0  0  0  0  0  0  0  0  0
   10.8132   24.5310    5.6441 N   0  0  0  0  0  0  0  0  0  0  0  0
   10.4293   24.0751    4.2678 C   0  0  2  0  0  0  0  0  0  0  0  0
   10.0212   25.1386    6.4561 C   0  0  0  0  0  0  0  0  0  0  0  0
    9.1827   23.4777    4.0381 C   0  0  0  0  0  0  0  0  0  0  0  0
    9.0375   23.1212    2.7339 C   0  0  0  0  0  0  0  0  0  0  0  0
    7.8603   22.3947    2.2147 F   0  0  0  0  0  0  0  0  0  0  0  0
   11.4013   23.9410    2.0491 C   0  0  0  0  0  0  0  0  0  0  0  0
    9.8933   23.3317    1.5387 C   0  0  0  0  0  0  0  0  0  0  0  0
    9.5064   26.2850    5.9725 O   0  0  0  0  0  0  0  0  0  0  0  0
   10.0480   25.1783    7.9754 C   0  0  0  0  0  0  0  0  0  0  0  0
   12.9976   25.1565    6.3713 O   0  0  0  0  0  0  0  0  0  0  0  0
    8.9517   25.7898    8.5998 C   0  0  2  0  0  0  0  0  0  0  0  0
    7.7142   25.4831    8.4477 N   0  0  0  0  0  0  0  0  0  0  0  0
    9.2867   26.9620    9.3555 O   0  0  0  0  0  0  0  0  0  0  0  0
    7.9449   27.5780    9.4903 C   0  0  0  0  0  0  0  0  0  0  0  0
    6.9904   26.6511    8.8128 C   0  0  0  0  0  0  0  0  0  0  0  0
  1  2  1  0
  1  3  1  0
  2  4  1  0
  3  5  1  0
  4  5  1  0
  4  6  1  0
  5  7  1  1
  7  8  1  0
  8  9  1  0
  3 10  1  6
  8 11  1  0
 10 11  1  0
  6 12  2  0
  6 13  1  0
  2 14  2  0
 15 13  1  6
 15 16  1  0
 15 17  1  0
 17 18  1  0
 16 19  1  0
 18 19  1  0
M  END
$$$$
76
     RDKit          3D

 19 21  0  0  0  0  0  0  0  0999 V2000
    9.6379   21.4497    1.6912 C   0  0  0  0  0  0  0  0  0  0  0  0
    8.6721   22.3973    1.9063 C   0  0  0  0  0  0  0  0  0  0  0  0
    9.0560   23.4995    2.7049 C   0  0  2  0  0  0  0  0  0  0  0  0
   10.9268   21.7103    2.1345 C   0  0  0  0  0  0  0  0  0  0  0  0
   10.2659   23.6360    3.2644 C   0  0  1  0  0  0  0  0  0  0  0  0
   11.2160   22.6838    2.9629 C   0  0  0  0  0  0  0  0  0  0  0  0
   10.5540   24.9114    4.0744 C   0  0  1  0  0  0  0  0  0  0  0  0
    9.3858   25.3954    4.6074 C   0  0  2  0  0  0  0  0  0  0  0  0
    9.4692   26.1600    5.7550 N   0  0  0  0  0  0  0  0  0  0  0  0
    8.4110   24.5765    3.5236 C   0  0  0  0  0  0  0  0  0  0  0  0
   11.8083   25.2353    4.6029 C   0  0  0  0  0  0  0  0  0  0  0  0
    8.2232   26.6127    6.1833 C   0  0  0  0  0  0  0  0  0  0  0  0
   11.8343   25.8105    5.8437 N   0  0  0  0  0  0  0  0  0  0  0  0
   13.0511   25.3020    3.9536 N   0  0  0  0  0  0  0  0  0  0  0  0
   10.5699   26.1278    6.4666 C   0  0  0  0  0  0  0  0  0  0  0  0
   10.5226   26.7320    7.6910 O   0  0  0  0  0  0  0  0  0  0  0  0
    7.8023   26.1820    7.6026 C   0  0  0  0  0  0  0  0  0  0  0  0
    7.6908   27.5040    5.6908 O   0  0  0  0  0  0  0  0  0  0  0  0
    6.5698   26.9816    7.9685 C   0  0  0  0  0  0  0  0  0  0  0  0
  1  2  1  0
  3  2  1  1
  1  4  1  0
  3  5  1  0
  4  6  1  0
  5  6  1  6
  5  7  1  0
  7  8  1  0
  8  9  1  0
  3 10  1  0
  8 10  1  1
  7 11  1  1
  9 12  1  0
 11 13  1  0
 11 14  2  0
  9 15  1  0
 13 15  1  0
 15 16  2  0
 12 17  1  0
 12 18  2  0
 17 19  1  0
M  END
$$$$
77
     RDKit          3D

 19 20  0  0  0  0  0  0  0  0999 V2000
   10.1015   21.4335    1.5568 C   0  0  0  0  0  0  0  0  0  0  0  0
    9.0756   22.2549    1.4200 C   0  0  0  0  0  0  0  0  0  0  0  0
   10.9996   21.6763    2.5971 C   0  0  0  0  0  0  0  0  0  0  0  0
   10.7213   22.8722    3.2535 C   0  0  2  0  0  0  0  0  0  0  0  0
    8.8238   23.4253    2.1421 C   0  0  0  0  0  0  0  0  0  0  0  0
    7.7244   24.2777    1.8984 O   0  0  0  0  0  0  0  0  0  0  0  0
    6.9487   24.6177    2.7530 C   0  0  0  0  0  0  0  0  0  0  0  0
   11.7605   23.2036    4.3827 C   0  0  0  0  0  0  0  0  0  0  0  0
   11.8675   24.6161    4.5990 C   0  0  2  0  0  0  0  0  0  0  0  0
   10.8279   25.1087    5.0423 N   0  0  0  0  0  0  0  0  0  0  0  0
    9.6972   23.6668    3.1550 C   0  0  2  0  0  0  0  0  0  0  0  0
    9.7031   24.7723    4.1584 C   0  0  0  0  0  0  0  0  0  0  0  0
   12.6181   25.3596    3.6418 O   0  0  0  0  0  0  0  0  0  0  0  0
   10.3616   25.3942    6.3594 C   0  0  0  0  0  0  0  0  0  0  0  0
   11.2791   25.2411    7.3346 O   0  0  0  0  0  0  0  0  0  0  0  0
    9.2148   26.0985    6.6627 N   0  0  0  0  0  0  0  0  0  0  0  0
    8.7981   26.6662    7.8929 C   0  0  0  0  0  0  0  0  0  0  0  0
    8.5885   27.9432    7.9528 C   0  0  0  0  0  0  0  0  0  0  0  0
    7.6775   28.4113    6.9512 O   0  0  0  0  0  0  0  0  0  0  0  0
  1  2  1  0
  1  3  1  0
  4  3  1  1
  2  5  1  0
  5  6  1  0
  6  7  1  0
  4  8  1  0
  8  9  1  0
  9 10  1  0
  4 11  1  0
  5 11  1  0
 10 12  1  0
 11 12  1  6
  9 13  1  6
 10 14  1  0
 14 15  2  0
 14 16  1  0
 16 17  1  0
 17 18  1  0
 18 19  1  0
M  END
$$$$
78
     RDKit          3D

 19 21  0  0  0  0  0  0  0  0999 V2000
    8.7965   22.1129    1.8528 C   0  0  0  0  0  0  0  0  0  0  0  0
    9.8574   21.5603    2.2234 C   0  0  0  0  0  0  0  0  0  0  0  0
    8.8802   23.4877    2.2044 C   0  0  0  0  0  0  0  0  0  0  0  0
    9.7801   23.8495    2.8783 C   0  0  2  0  0  0  0  0  0  0  0  0
   10.9529   23.2087    3.3375 C   0  0  0  0  0  0  0  0  0  0  0  0
    9.7524   25.2742    3.6943 C   0  0  0  0  0  0  0  0  0  0  0  0
   11.9184   23.8371    4.1971 C   0  0  0  0  0  0  0  0  0  0  0  0
   11.0329   21.9395    2.8431 C   0  0  0  0  0  0  0  0  0  0  0  0
   11.6380   24.7819    4.8738 N   0  0  0  0  0  0  0  0  0  0  0  0
   10.4522   25.4122    4.7042 C   0  0  2  0  0  0  0  0  0  0  0  0
    9.7464   25.9736    5.8253 N   0  0  0  0  0  0  0  0  0  0  0  0
   10.2377   25.7892    7.1162 C   0  0  2  0  0  0  0  0  0  0  0  0
    8.6326   26.7151    5.6972 C   0  0  0  0  0  0  0  0  0  0  0  0
    8.0337   26.9582    4.6366 O   0  0  0  0  0  0  0  0  0  0  0  0
   11.1174   24.8612    7.3372 O   0  0  0  0  0  0  0  0  0  0  0  0
    7.9503   27.3032    6.8600 C   0  0  0  0  0  0  0  0  0  0  0  0
    8.4107   26.9998    8.0969 C   0  0  0  0  0  0  0  0  0  0  0  0
    9.5574   26.2399    8.2885 C   0  0  0  0  0  0  0  0  0  0  0  0
    7.6961   27.5052    9.1845 O   0  0  0  0  0  0  0  0  0  0  0  0
  1  2  1  0
  1  3  1  0
  4  3  1  1
  4  5  1  0
  4  6  1  0
  5  7  1  0
  2  8  1  0
  5  8  1  0
  7  9  1  0
  6 10  1  0
  9 10  1  0
 10 11  1  1
 11 12  1  0
 11 13  1  0
 13 14  2  0
 12 15  1  1
 13 16  1  0
 16 17  1  0
 12 18  1  0
 17 18  1  0
 17 19  1  0
M  END
$$$$
79
     RDKit          3D

 19 20  0  0  0  0  0  0  0  0999 V2000
   10.1015   21.4335    1.5568 C   0  0  0  0  0  0  0  0  0  0  0  0
    9.0756   22.2549    1.4200 C   0  0  0  0  0  0  0  0  0  0  0  0
   10.9996   21.6763    2.5971 C   0  0  0  0  0  0  0  0  0  0  0  0
   10.7213   22.8722    3.2535 C   0  0  2  0  0  0  0  0  0  0  0  0
    8.8238   23.4253    2.1421 C   0  0  0  0  0  0  0  0  0  0  0  0
    7.7244   24.2777    1.8984 O   0  0  0  0  0  0  0  0  0  0  0  0
    6.9487   24.6177    2.7530 C   0  0  0  0  0  0  0  0  0  0  0  0
   11.7605   23.2036    4.3827 C   0  0  0  0  0  0  0  0  0  0  0  0
   11.8675   24.6161    4.5990 C   0  0  2  0  0  0  0  0  0  0  0  0
   10.8279   25.1087    5.0423 N   0  0  0  0  0  0  0  0  0  0  0  0
    9.6972   23.6668    3.1550 C   0  0  2  0  0  0  0  0  0  0  0  0
    9.7031   24.7723    4.1584 C   0  0  0  0  0  0  0  0  0  0  0  0
   12.6181   25.3596    3.6418 O   0  0  0  0  0  0  0  0  0  0  0  0
   10.3616   25.3942    6.3594 C   0  0  0  0  0  0  0  0  0  0  0  0
   11.2791   25.2411    7.3346 O   0  0  0  0  0  0  0  0  0  0  0  0
    9.2148   26.0985    6.6627 N   0  0  0  0  0  0  0  0  0  0  0  0
    8.7981   26.6662    7.8929 C   0  0  0  0  0  0  0  0  0  0  0  0
    7.6379   25.9078    8.2182 C   0  0  0  0  0  0  0  0  0  0  0  0
    9.1964   27.6512    8.5204 C   0  0  0  0  0  0  0  0  0  0  0  0
  1  2  1  0
  1  3  1  0
  4  3  1  1
  2  5  1  0
  5  6  1  0
  6  7  1  0
  4  8  1  0
  8  9  1  0
  9 10  1  0
  4 11  1  0
  5 11  1  0
 10 12  1  0
 11 12  1  6
  9 13  1  6
 10 14  1  0
 14 15  2  0
 14 16  1  0
 16 17  1  0
 17 18  1  0
 17 19  1  0
M  END
$$$$
8
     RDKit          3D

 14 16  0  0  0  0  0  0  0  0999 V2000
    7.8042   23.4530    2.0953 C   0  0  0  0  0  0  0  0  0  0  0  0
    8.6685   22.7031    2.0448 C   0  0  0  0  0  0  0  0  0  0  0  0
    7.9344   24.6610    2.9174 C   0  0  0  0  0  0  0  0  0  0  0  0
    9.9893   22.7766    2.6426 C   0  0  1  0  0  0  0  0  0  0  0  0
    9.1521   24.7567    3.6101 C   0  0  0  0  0  0  0  0  0  0  0  0
   10.1335   23.8039    3.4696 C   0  0  2  0  0  0  0  0  0  0  0  0
   11.0317   21.7245    2.4535 C   0  0  0  0  0  0  0  0  0  0  0  0
   12.1777   21.9711    3.0768 C   0  0  0  0  0  0  0  0  0  0  0  0
   12.1190   22.9267    4.0505 C   0  0  1  0  0  0  0  0  0  0  0  0
   13.4048   23.0771    4.9060 C   0  0  0  0  0  0  0  0  0  0  0  0
   11.2181   24.0355    4.0671 C   0  0  0  0  0  0  0  0  0  0  0  0
   11.5381   25.3157    4.7555 N   0  0  0  0  0  0  0  0  0  0  0  0
   12.5686   25.2373    5.6019 C   0  0  0  0  0  0  0  0  0  0  0  0
   13.2558   24.0455    5.9335 N   0  0  0  0  0  0  0  0  0  0  0  0
  1  2  1  0
  1  3  1  0
  4  2  1  1
  3  5  1  0
  4  6  1  0
  6  5  1  6
  4  7  1  0
  7  8  1  0
  9  8  1  6
  9 10  1  0
  6 11  1  0
  9 11  1  0
 11 12  1  0
 12 13  1  0
 10 14  1  0
 13 14  1  0
M  END
$$$$
80
     RDKit          3D

 19 20  0  0  0  0  0  0  0  0999 V2000
   13.1674   25.1983    4.4733 O   0  0  0  0  0  0  0  0  0  0  0  0
   12.3027   24.3460    4.8068 C   0  0  1  0  0  0  0  0  0  0  0  0
   11.4678   24.6899    5.8125 C   0  0  1  0  0  0  0  0  0  0  0  0
   12.0401   23.4256    3.7194 C   0  0  0  0  0  0  0  0  0  0  0  0
   10.7448   22.6440    3.9408 C   0  0  1  0  0  0  0  0  0  0  0  0
    9.9888   22.9137    5.0621 C   0  0  0  0  0  0  0  0  0  0  0  0
   10.3848   23.8894    5.9294 C   0  0  2  0  0  0  0  0  0  0  0  0
   10.3136   21.7909    2.8501 C   0  0  2  0  0  0  0  0  0  0  0  0
    9.5978   24.2690    7.0693 C   0  0  0  0  0  0  0  0  0  0  0  0
   11.8689   25.6886    6.6873 C   0  0  0  0  0  0  0  0  0  0  0  0
   11.1122   25.8203    7.6943 C   0  0  0  0  0  0  0  0  0  0  0  0
    9.8965   25.2863    7.8866 C   0  0  2  0  0  0  0  0  0  0  0  0
   11.0521   21.5194    1.7780 O   0  0  0  0  0  0  0  0  0  0  0  0
    8.8424   25.6027    9.1696 C   0  0  0  0  0  0  0  0  0  0  0  0
    8.9935   22.3156    2.3807 C   0  0  0  0  0  0  0  0  0  0  0  0
    9.0098   23.2633    1.4350 O   0  0  0  0  0  0  0  0  0  0  0  0
    8.5528   27.0839    9.0568 C   0  0  0  0  0  0  0  0  0  0  0  0
    8.8967   24.6149    1.9245 C   0  0  0  0  0  0  0  0  0  0  0  0
    7.2839   27.3301    8.7288 O   0  0  0  0  0  0  0  0  0  0  0  0
  2  1  1  6
  2  3  1  0
  2  4  1  0
  5  4  1  6
  5  6  1  0
  3  7  1  0
  7  6  1  6
  5  8  1  0
  7  9  1  0
  3 10  1  1
 10 11  1  0
  9 12  1  0
 11 12  1  0
  8 13  1  6
 12 14  1  1
  8 15  1  0
 15 16  1  0
 14 17  1  0
 16 18  1  0
 17 19  1  0
M  END
$$$$
81
     RDKit          3D

 19 21  0  0  0  0  0  0  0  0999 V2000
    8.4262   28.2013    8.2709 C   0  0  0  0  0  0  0  0  0  0  0  0
    9.2342   27.2918    8.9477 C   0  0  0  0  0  0  0  0  0  0  0  0
    9.2119   26.1963    8.1698 C   0  0  0  0  0  0  0  0  0  0  0  0
    7.8917   28.2175    7.0914 C   0  0  0  0  0  0  0  0  0  0  0  0
    8.7343   26.0128    6.8865 C   0  0  0  0  0  0  0  0  0  0  0  0
    9.0288   24.7630    6.2307 N   0  0  0  0  0  0  0  0  0  0  0  0
    8.0260   27.0160    6.3335 C   0  0  0  0  0  0  0  0  0  0  0  0
    9.4444   24.7375    4.9446 C   0  0  0  0  0  0  0  0  0  0  0  0
   10.1943   23.5549    4.6639 C   0  0  2  0  0  0  0  0  0  0  0  0
   10.9153   22.9487    5.7370 C   0  0  0  0  0  0  0  0  0  0  0  0
   11.1773   23.5735    3.4587 C   0  0  2  0  0  0  0  0  0  0  0  0
   11.5742   22.3876    3.0025 C   0  0  1  0  0  0  0  0  0  0  0  0
   11.7529   21.8083    5.5325 C   0  0  0  0  0  0  0  0  0  0  0  0
   12.3343   21.6905    4.1940 C   0  0  0  0  0  0  0  0  0  0  0  0
   12.2849   24.6049    3.7176 C   0  0  0  0  0  0  0  0  0  0  0  0
   10.3676   24.2901    2.0908 C   0  0  0  0  0  0  0  0  0  0  0  0
    9.0849   23.4688    2.0019 C   0  0  0  0  0  0  0  0  0  0  0  0
    9.3608   22.0545    1.5879 C   0  0  0  0  0  0  0  0  0  0  0  0
   10.6657   21.5335    2.2499 C   0  0  0  0  0  0  0  0  0  0  0  0
  1  2  1  0
  2  3  1  0
  1  4  1  0
  3  5  1  0
  5  6  1  0
  4  7  1  0
  5  7  1  0
  6  8  1  0
  9  8  1  1
  9 10  1  0
  9 11  1  0
 11 12  1  0
 10 13  1  0
 12 14  1  1
 13 14  1  0
 11 15  1  1
 11 16  1  0
 16 17  1  0
 17 18  1  0
 12 19  1  0
 18 19  1  0
M  END
$$$$
82
     RDKit          3D

 19 20  0  0  0  0  0  0  0  0999 V2000
    7.6235   28.1098    7.8805 N   0  0  0  0  0  0  0  0  0  0  0  0
    8.7563   27.5902    8.4482 C   0  0  0  0  0  0  0  0  0  0  0  0
    7.2671   27.5450    6.7347 C   0  0  0  0  0  0  0  0  0  0  0  0
    9.4453   26.5172    7.9842 C   0  0  0  0  0  0  0  0  0  0  0  0
    7.9301   26.6109    6.2767 N   0  0  0  0  0  0  0  0  0  0  0  0
    8.9986   26.0311    6.9495 C   0  0  1  0  0  0  0  0  0  0  0  0
    9.6573   24.9359    6.2158 C   0  0  2  0  0  0  0  0  0  0  0  0
   10.8749   24.6672    6.4633 C   0  0  0  0  0  0  0  0  0  0  0  0
    9.0189   24.2023    5.1102 C   0  0  0  0  0  0  0  0  0  0  0  0
    9.7141   23.2857    4.4758 C   0  0  0  0  0  0  0  0  0  0  0  0
   11.6412   23.6532    5.8643 C   0  0  0  0  0  0  0  0  0  0  0  0
    9.1594   22.5636    3.3877 O   0  0  0  0  0  0  0  0  0  0  0  0
    8.7853   23.2238    2.2829 C   0  0  2  0  0  0  0  0  0  0  0  0
   11.0923   22.9728    4.8735 C   0  0  0  0  0  0  0  0  0  0  0  0
    7.7105   23.6857    2.2488 C   0  0  0  0  0  0  0  0  0  0  0  0
    9.9155   23.0221    1.3732 C   0  0  0  0  0  0  0  0  0  0  0  0
   11.0099   22.3319    1.6282 O   0  0  0  0  0  0  0  0  0  0  0  0
    6.5035   23.1908    2.4899 O   0  0  0  0  0  0  0  0  0  0  0  0
    7.6892   25.1366    2.4659 O   0  0  0  0  0  0  0  0  0  0  0  0
  1  2  1  0
  1  3  1  0
  2  4  1  0
  3  5  1  0
  6  4  1  6
  5  6  1  0
  6  7  1  0
  7  8  1  6
  7  9  1  0
  9 10  1  0
  8 11  1  0
 10 12  1  0
 12 13  1  0
 10 14  1  0
 11 14  1  0
 13 15  1  0
 13 16  1  6
 16 17  1  0
 15 18  1  0
 15 19  2  0
M  END
$$$$
83
     RDKit          3D

 19 21  0  0  0  0  0  0  0  0999 V2000
    8.7965   22.1129    1.8528 C   0  0  0  0  0  0  0  0  0  0  0  0
    9.8574   21.5603    2.2234 C   0  0  0  0  0  0  0  0  0  0  0  0
    8.8802   23.4877    2.2044 C   0  0  0  0  0  0  0  0  0  0  0  0
    9.7801   23.8495    2.8783 C   0  0  2  0  0  0  0  0  0  0  0  0
   10.9529   23.2087    3.3375 C   0  0  0  0  0  0  0  0  0  0  0  0
    9.7524   25.2742    3.6943 C   0  0  0  0  0  0  0  0  0  0  0  0
   11.9184   23.8371    4.1971 C   0  0  0  0  0  0  0  0  0  0  0  0
   11.0329   21.9395    2.8431 C   0  0  0  0  0  0  0  0  0  0  0  0
   11.6380   24.7819    4.8738 N   0  0  0  0  0  0  0  0  0  0  0  0
   10.4522   25.4122    4.7042 C   0  0  2  0  0  0  0  0  0  0  0  0
    9.7464   25.9736    5.8253 N   0  0  0  0  0  0  0  0  0  0  0  0
   10.2377   25.7892    7.1162 C   0  0  2  0  0  0  0  0  0  0  0  0
    8.6326   26.7151    5.6972 C   0  0  0  0  0  0  0  0  0  0  0  0
    8.0337   26.9582    4.6366 O   0  0  0  0  0  0  0  0  0  0  0  0
   11.1174   24.8612    7.3372 O   0  0  0  0  0  0  0  0  0  0  0  0
    9.5065   26.2620    8.2610 C   0  0  0  0  0  0  0  0  0  0  0  0
    8.3270   27.0593    7.8861 C   0  0  1  0  0  0  0  0  0  0  0  0
    7.9245   27.2707    6.6236 N   0  0  0  0  0  0  0  0  0  0  0  0
    7.6166   27.5164    8.9401 O   0  0  0  0  0  0  0  0  0  0  0  0
  1  2  1  0
  1  3  1  0
  4  3  1  1
  4  5  1  0
  4  6  1  0
  5  7  1  0
  2  8  1  0
  5  8  1  0
  7  9  1  0
  6 10  1  0
  9 10  1  0
 10 11  1  1
 11 12  1  0
 11 13  1  0
 13 14  2  0
 12 15  1  1
 12 16  1  0
 16 17  1  0
 13 18  1  0
 17 18  1  0
 17 19  1  1
M  END
$$$$
84
     RDKit          3D

 19 21  0  0  0  0  0  0  0  0999 V2000
    9.6379   21.4497    1.6912 C   0  0  0  0  0  0  0  0  0  0  0  0
    8.6721   22.3973    1.9063 C   0  0  0  0  0  0  0  0  0  0  0  0
    9.0560   23.4995    2.7049 C   0  0  2  0  0  0  0  0  0  0  0  0
   10.9268   21.7103    2.1345 C   0  0  0  0  0  0  0  0  0  0  0  0
   11.0750   22.7404    2.9500 C   0  0  0  0  0  0  0  0  0  0  0  0
   10.1854   23.6162    3.2565 C   0  0  0  0  0  0  0  0  0  0  0  0
    7.9864   24.4915    3.1007 C   0  0  0  0  0  0  0  0  0  0  0  0
    8.2284   25.3866    4.0089 C   0  0  0  0  0  0  0  0  0  0  0  0
   10.2644   24.7308    4.1920 C   0  0  0  0  0  0  0  0  0  0  0  0
    9.3702   25.4673    4.5037 C   0  0  0  0  0  0  0  0  0  0  0  0
   11.7168   24.9680    4.8084 C   0  0  0  0  0  0  0  0  0  0  0  0
   11.7563   25.2015    6.1595 C   0  0  0  0  0  0  0  0  0  0  0  0
   11.1732   24.3595    7.1152 C   0  0  0  0  0  0  0  0  0  0  0  0
   10.4074   24.9757    8.1549 C   0  0  0  0  0  0  0  0  0  0  0  0
    9.4814   25.9311    7.8421 C   0  0  1  0  0  0  0  0  0  0  0  0
    8.2241   25.7712    7.3139 N   0  0  0  0  0  0  0  0  0  0  0  0
    7.3470   26.6848    7.2898 C   0  0  0  0  0  0  0  0  0  0  0  0
    8.9904   27.1378    8.5665 C   0  0  0  0  0  0  0  0  0  0  0  0
    7.7642   27.5506    8.0908 N   0  0  0  0  0  0  0  0  0  0  0  0
  1  2  1  0
  3  2  1  1
  1  4  1  0
  4  5  1  0
  3  6  1  0
  5  6  1  0
  3  7  1  0
  7  8  1  0
  6  9  1  0
  8 10  1  0
  9 10  1  0
  9 11  1  0
 11 12  1  0
 12 13  1  0
 13 14  1  0
 15 14  1  1
 15 16  1  0
 16 17  1  0
 15 18  1  0
 17 19  1  0
 18 19  1  0
M  END
$$$$
85
     RDKit          3D

 20 22  0  0  0  0  0  0  0  0999 V2000
    8.8442   27.9866    8.3990 C   0  0  0  0  0  0  0  0  0  0  0  0
    8.3862   27.7454    7.2005 C   0  0  0  0  0  0  0  0  0  0  0  0
    8.7989   26.4306    6.5638 C   0  0  0  0  0  0  0  0  0  0  0  0
    9.5216   26.7657    9.0399 C   0  0  0  0  0  0  0  0  0  0  0  0
    9.7883   25.7136    8.2595 C   0  0  0  0  0  0  0  0  0  0  0  0
    9.4207   25.5619    7.2003 C   0  0  2  0  0  0  0  0  0  0  0  0
    9.6919   24.3419    6.3681 C   0  0  0  0  0  0  0  0  0  0  0  0
   10.5648   23.4549    6.9545 O   0  0  0  0  0  0  0  0  0  0  0  0
    9.3420   24.0179    5.1702 N   0  0  0  0  0  0  0  0  0  0  0  0
    9.9394   22.9877    4.3791 C   0  0  1  0  0  0  0  0  0  0  0  0
    9.4472   22.9273    3.0491 C   0  0  1  0  0  0  0  0  0  0  0  0
   11.4825   23.2256    4.2025 C   0  0  0  0  0  0  0  0  0  0  0  0
    9.4968   24.1068    2.2966 C   0  0  0  0  0  0  0  0  0  0  0  0
    8.9705   21.6900    2.4150 C   0  0  0  0  0  0  0  0  0  0  0  0
    9.6660   21.4553    1.2026 C   0  0  0  0  0  0  0  0  0  0  0  0
    9.4657   25.3558    2.8613 C   0  0  0  0  0  0  0  0  0  0  0  0
    8.9032   25.2067    4.3874 C   0  0  2  0  0  0  0  0  0  0  0  0
    8.3976   26.3649    5.1271 C   0  0  0  0  0  0  0  0  0  0  0  0
   12.2584   22.3726    4.5389 O   0  0  0  0  0  0  0  0  0  0  0  0
   11.9665   24.3822    3.7800 N   0  0  0  0  0  0  0  0  0  0  0  0
  1  2  1  0
  2  3  1  0
  1  4  1  0
  4  5  1  0
  3  6  1  0
  6  5  1  6
  6  7  1  0
  7  8  2  0
  7  9  1  0
  9 10  1  0
 10 11  1  0
 10 12  1  6
 11 13  1  0
 11 14  1  6
 14 15  1  0
 13 16  1  0
  9 17  1  0
 17 16  1  1
  3 18  1  0
 17 18  1  0
 12 19  2  0
 12 20  1  0
M  END
$$$$
86
     RDKit          3D

 20 22  0  0  0  0  0  0  0  0999 V2000
   10.0826   21.2541    1.3025 N   0  0  0  0  0  0  0  0  0  0  0  0
    9.7173   22.1639    1.6842 C   0  0  0  0  0  0  0  0  0  0  0  0
    9.7422   23.2106    2.7012 C   0  0  1  0  0  0  0  0  0  0  0  0
    8.6631   23.8596    3.0582 C   0  0  1  0  0  0  0  0  0  0  0  0
   11.0362   23.3963    3.3758 C   0  0  0  0  0  0  0  0  0  0  0  0
    8.7461   24.8280    3.9041 C   0  0  2  0  0  0  0  0  0  0  0  0
   12.2496   22.7058    3.0517 C   0  0  0  0  0  0  0  0  0  0  0  0
    7.4153   23.8662    2.0927 C   0  0  0  0  0  0  0  0  0  0  0  0
   10.9992   24.3688    4.4933 C   0  0  0  0  0  0  0  0  0  0  0  0
    9.7095   25.0515    4.5616 C   0  0  2  0  0  0  0  0  0  0  0  0
    9.6986   25.8083    5.8638 N   0  0  0  0  0  0  0  0  0  0  0  0
    7.2885   25.3000    3.9160 N   0  0  0  0  0  0  0  0  0  0  0  0
    6.6100   24.8013    2.8575 C   0  0  0  0  0  0  0  0  0  0  0  0
    8.5705   26.3909    6.3251 C   0  0  0  0  0  0  0  0  0  0  0  0
    8.5203   27.7061    6.0827 O   0  0  0  0  0  0  0  0  0  0  0  0
   12.0817   24.4711    5.2349 C   0  0  0  0  0  0  0  0  0  0  0  0
    7.4611   25.7423    7.0413 C   0  0  0  0  0  0  0  0  0  0  0  0
    7.5316   26.3692    8.4417 C   0  0  0  0  0  0  0  0  0  0  0  0
   12.1203   25.5412    6.1544 N   0  0  0  0  0  0  0  0  0  0  0  0
   10.7829   25.9617    6.6119 C   0  0  0  0  0  0  0  0  0  0  0  0
  1  2  3  0
  3  2  1  1
  3  4  1  0
  3  5  1  0
  4  6  1  0
  5  7  1  0
  4  8  1  6
  5  9  1  0
  6 10  1  0
  9 10  1  0
 10 11  1  1
  6 12  1  1
  8 13  1  0
 12 13  1  0
 11 14  1  0
 14 15  2  0
  9 16  1  0
 14 17  1  0
 17 18  1  0
 16 19  1  0
 11 20  1  0
 19 20  1  0
M  END
$$$$
87
     RDKit          3D

 20 20  0  0  0  0  0  0  0  0999 V2000
    8.4262   28.2013    8.2709 C   0  0  0  0  0  0  0  0  0  0  0  0
    9.2342   27.2918    8.9477 C   0  0  0  0  0  0  0  0  0  0  0  0
    9.2119   26.1963    8.1698 C   0  0  0  0  0  0  0  0  0  0  0  0
    7.8917   28.2175    7.0914 C   0  0  0  0  0  0  0  0  0  0  0  0
    8.7343   26.0128    6.8865 C   0  0  0  0  0  0  0  0  0  0  0  0
    9.0288   24.7630    6.2307 N   0  0  0  0  0  0  0  0  0  0  0  0
    8.0260   27.0160    6.3335 C   0  0  0  0  0  0  0  0  0  0  0  0
    9.4444   24.7375    4.9446 C   0  0  0  0  0  0  0  0  0  0  0  0
   10.1943   23.5549    4.6639 C   0  0  2  0  0  0  0  0  0  0  0  0
   10.9153   22.9487    5.7370 C   0  0  0  0  0  0  0  0  0  0  0  0
   11.1773   23.5735    3.4587 C   0  0  1  0  0  0  0  0  0  0  0  0
   11.5742   22.3876    3.0025 C   0  0  0  0  0  0  0  0  0  0  0  0
   12.1605   23.6667    6.1007 N   0  0  0  0  0  0  0  0  0  0  0  0
   11.3974   24.6877    2.6961 C   0  0  0  0  0  0  0  0  0  0  0  0
   10.6578   21.5327    2.1795 C   0  0  0  0  0  0  0  0  0  0  0  0
   10.5230   22.0843    6.4275 O   0  0  0  0  0  0  0  0  0  0  0  0
    9.6578   21.6896    1.6194 C   0  0  0  0  0  0  0  0  0  0  0  0
   12.6491   24.8103    5.5064 C   0  0  0  0  0  0  0  0  0  0  0  0
   12.5558   23.5467    7.5375 C   0  0  0  0  0  0  0  0  0  0  0  0
    9.2279   25.4956    4.0344 O   0  0  0  0  0  0  0  0  0  0  0  0
  1  2  1  0
  2  3  1  0
  1  4  1  0
  3  5  1  0
  5  6  1  0
  4  7  1  0
  5  7  1  0
  6  8  1  0
  9  8  1  1
  9 10  1  0
  9 11  1  0
 11 12  1  0
 10 13  1  0
 11 14  1  6
 12 15  1  0
 10 16  2  0
 15 17  3  0
 13 18  1  0
 13 19  1  0
  8 20  2  0
M  END
$$$$
88
     RDKit          3D

 20 22  0  0  0  0  0  0  0  0999 V2000
   10.3994   21.3993    1.8015 C   0  0  0  0  0  0  0  0  0  0  0  0
    9.2140   21.8400    1.4164 C   0  0  0  0  0  0  0  0  0  0  0  0
   11.1121   22.0803    2.7853 C   0  0  0  0  0  0  0  0  0  0  0  0
   10.4441   23.1260    3.2940 C   0  0  0  0  0  0  0  0  0  0  0  0
    8.6526   23.0093    2.1737 C   0  0  0  0  0  0  0  0  0  0  0  0
    9.2609   23.6130    3.0960 C   0  0  0  0  0  0  0  0  0  0  0  0
   11.1648   23.8797    4.5153 C   0  0  2  0  0  0  0  0  0  0  0  0
   10.4909   24.0198    5.6845 C   0  0  0  0  0  0  0  0  0  0  0  0
   10.9755   24.6962    6.7583 C   0  0  2  0  0  0  0  0  0  0  0  0
   12.3586   24.5070    4.2519 C   0  0  0  0  0  0  0  0  0  0  0  0
   12.8605   25.2687    5.3338 N   0  0  0  0  0  0  0  0  0  0  0  0
   12.2699   25.3723    6.4943 C   0  0  0  0  0  0  0  0  0  0  0  0
   10.3458   24.7192    8.1856 C   0  0  0  0  0  0  0  0  0  0  0  0
   10.1469   26.0257    8.5581 O   0  0  0  0  0  0  0  0  0  0  0  0
    8.8709   26.5716    8.4850 C   0  0  2  0  0  0  0  0  0  0  0  0
    7.8385   25.8694    8.0365 C   0  0  0  0  0  0  0  0  0  0  0  0
    6.6143   26.6088    7.7854 C   0  0  0  0  0  0  0  0  0  0  0  0
    6.7693   27.8143    7.2420 N   0  0  0  0  0  0  0  0  0  0  0  0
    7.9472   28.5440    7.4233 N   0  0  0  0  0  0  0  0  0  0  0  0
    8.9981   27.7987    7.7585 C   0  0  0  0  0  0  0  0  0  0  0  0
  1  2  1  0
  1  3  1  0
  3  4  1  0
  2  5  1  0
  4  6  1  0
  5  6  1  0
  7  4  1  6
  7  8  1  0
  8  9  1  0
  7 10  1  0
 10 11  1  0
  9 12  1  0
 11 12  1  0
  9 13  1  1
 13 14  1  0
 15 14  1  6
 15 16  1  0
 16 17  1  0
 17 18  1  0
 18 19  1  0
 15 20  1  0
 19 20  1  0
M  END
$$$$
89
     RDKit          3D

 20 22  0  0  0  0  0  0  0  0999 V2000
   10.1015   21.4335    1.5568 C   0  0  0  0  0  0  0  0  0  0  0  0
   10.4964   22.0851    2.5651 C   0  0  0  0  0  0  0  0  0  0  0  0
    9.8724   23.2586    3.1328 C   0  0  0  0  0  0  0  0  0  0  0  0
    8.8120   21.8883    1.0754 C   0  0  0  0  0  0  0  0  0  0  0  0
    8.2763   23.1072    1.7948 C   0  0  0  0  0  0  0  0  0  0  0  0
    8.8081   23.7191    2.7710 C   0  0  0  0  0  0  0  0  0  0  0  0
   10.7066   23.9164    4.3986 C   0  0  1  0  0  0  0  0  0  0  0  0
   11.9767   24.2515    4.2280 C   0  0  0  0  0  0  0  0  0  0  0  0
   10.0347   24.3639    5.3466 C   0  0  0  0  0  0  0  0  0  0  0  0
   10.5037   24.9244    6.4605 C   0  0  1  0  0  0  0  0  0  0  0  0
   11.9552   25.2942    6.4229 C   0  0  0  0  0  0  0  0  0  0  0  0
   12.6668   24.7572    5.2903 C   0  0  0  0  0  0  0  0  0  0  0  0
    9.7954   25.4698    7.8209 S   0  0  0  0  0  0  0  0  0  0  0  0
    8.5410   26.3901    7.5406 N   0  0  0  0  0  0  0  0  0  0  0  0
   10.6689   26.1415    8.7030 O   0  0  0  0  0  0  0  0  0  0  0  0
    9.2540   24.2630    8.5505 O   0  0  0  0  0  0  0  0  0  0  0  0
    7.5581   26.5085    8.4161 C   0  0  0  0  0  0  0  0  0  0  0  0
    8.4026   27.0604    6.2264 C   0  0  0  0  0  0  0  0  0  0  0  0
    6.4070   27.2827    7.7105 C   0  0  0  0  0  0  0  0  0  0  0  0
    6.9287   27.4742    6.3047 C   0  0  0  0  0  0  0  0  0  0  0  0
  1  2  1  0
  2  3  1  0
  1  4  1  0
  4  5  1  0
  3  6  1  0
  5  6  1  0
  7  3  1  6
  7  8  1  0
  7  9  1  0
  9 10  1  0
 10 11  1  0
  8 12  1  0
 11 12  1  0
 10 13  1  6
 13 14  1  0
 13 15  2  0
 13 16  2  0
 14 17  1  0
 14 18  1  0
 17 19  1  0
 18 20  1  0
 19 20  1  0
M  END
$$$$
9
     RDKit          3D

 14 15  0  0  0  0  0  0  0  0999 V2000
    9.6379   21.4497    1.6912 C   0  0  0  0  0  0  0  0  0  0  0  0
    8.6721   22.3973    1.9063 C   0  0  0  0  0  0  0  0  0  0  0  0
    9.0560   23.4995    2.7049 C   0  0  2  0  0  0  0  0  0  0  0  0
   10.9268   21.7103    2.1345 C   0  0  0  0  0  0  0  0  0  0  0  0
   11.0750   22.7404    2.9500 C   0  0  0  0  0  0  0  0  0  0  0  0
   10.1854   23.6162    3.2565 C   0  0  0  0  0  0  0  0  0  0  0  0
    7.9864   24.4915    3.1007 C   0  0  0  0  0  0  0  0  0  0  0  0
    8.2284   25.3866    4.0089 C   0  0  0  0  0  0  0  0  0  0  0  0
   10.2644   24.7308    4.1920 C   0  0  0  0  0  0  0  0  0  0  0  0
    9.3702   25.4673    4.5037 C   0  0  0  0  0  0  0  0  0  0  0  0
   11.7168   24.9680    4.8084 C   0  0  0  0  0  0  0  0  0  0  0  0
   11.7563   25.2015    6.1595 C   0  0  0  0  0  0  0  0  0  0  0  0
   12.5556   24.3843    6.9371 N   0  0  0  0  0  0  0  0  0  0  0  0
   11.2826   26.0512    6.7070 O   0  0  0  0  0  0  0  0  0  0  0  0
  1  2  1  0
  3  2  1  1
  1  4  1  0
  4  5  1  0
  3  6  1  0
  5  6  1  0
  3  7  1  0
  7  8  1  0
  6  9  1  0
  8 10  1  0
  9 10  1  0
  9 11  1  0
 11 12  1  0
 12 13  1  0
 12 14  2  0
M  END
$$$$
90
     RDKit          3D

 20 22  0  0  0  0  0  0  0  0999 V2000
    7.6701   28.2340    8.1171 N   0  0  0  0  0  0  0  0  0  0  0  0
    8.8426   27.7210    8.6446 C   0  0  0  0  0  0  0  0  0  0  0  0
    9.1816   26.4960    8.0129 C   0  0  2  0  0  0  0  0  0  0  0  0
   10.3342   25.7585    8.1724 C   0  0  0  0  0  0  0  0  0  0  0  0
    7.2569   27.6975    6.9963 C   0  0  0  0  0  0  0  0  0  0  0  0
    8.1872   26.5633    6.7833 C   0  0  2  0  0  0  0  0  0  0  0  0
    8.1865   25.5219    5.6831 C   0  0  1  0  0  0  0  0  0  0  0  0
   10.6831   24.6437    7.2993 C   0  0  0  0  0  0  0  0  0  0  0  0
   11.8813   24.1664    7.3890 C   0  0  0  0  0  0  0  0  0  0  0  0
    9.6727   24.1871    6.3648 C   0  0  0  0  0  0  0  0  0  0  0  0
    7.2261   25.9526    4.7244 O   0  0  0  0  0  0  0  0  0  0  0  0
    8.9380   24.5355    5.5856 C   0  0  0  0  0  0  0  0  0  0  0  0
    7.7720   26.2055    3.4294 C   0  0  0  0  0  0  0  0  0  0  0  0
   12.9835   24.8417    6.9179 O   0  0  0  0  0  0  0  0  0  0  0  0
    7.0392   27.1001    2.6924 C   0  0  0  0  0  0  0  0  0  0  0  0
   12.0809   22.8702    7.0518 O   0  0  0  0  0  0  0  0  0  0  0  0
    7.5725   27.4510    1.4918 C   0  0  0  0  0  0  0  0  0  0  0  0
    7.9653   24.9701    2.5749 C   0  0  0  0  0  0  0  0  0  0  0  0
    7.7787   26.1645    0.6667 C   0  0  0  0  0  0  0  0  0  0  0  0
    8.4169   25.1251    1.3181 C   0  0  0  0  0  0  0  0  0  0  0  0
  1  2  1  0
  3  2  1  6
  3  4  1  0
  1  5  1  0
  3  6  1  0
  6  5  1  1
  6  7  1  0
  4  8  1  0
  8  9  1  0
  8 10  1  0
  7 11  1  6
  7 12  1  0
 10 12  1  0
 11 13  1  0
  9 14  1  0
 13 15  1  0
  9 16  1  0
 15 17  1  0
 13 18  1  0
 17 19  1  0
 18 20  1  0
 19 20  1  0
M  END
$$$$
91
     RDKit          3D

 20 22  0  0  0  0  0  0  0  0999 V2000
    8.4262   28.2013    8.2709 C   0  0  0  0  0  0  0  0  0  0  0  0
    9.2342   27.2918    8.9477 C   0  0  0  0  0  0  0  0  0  0  0  0
    9.2119   26.1963    8.1698 C   0  0  1  0  0  0  0  0  0  0  0  0
    7.8917   28.2175    7.0914 C   0  0  0  0  0  0  0  0  0  0  0  0
    8.7343   26.0128    6.8865 C   0  0  0  0  0  0  0  0  0  0  0  0
    9.0288   24.7630    6.2307 N   0  0  0  0  0  0  0  0  0  0  0  0
    8.0260   27.0160    6.3335 C   0  0  0  0  0  0  0  0  0  0  0  0
    9.4444   24.7375    4.9446 C   0  0  0  0  0  0  0  0  0  0  0  0
   10.1943   23.5549    4.6639 C   0  0  2  0  0  0  0  0  0  0  0  0
   10.9153   22.9487    5.7370 C   0  0  0  0  0  0  0  0  0  0  0  0
   11.1773   23.5735    3.4587 C   0  0  1  0  0  0  0  0  0  0  0  0
   11.8900   22.1596    5.5672 O   0  0  0  0  0  0  0  0  0  0  0  0
   10.5421   22.9400    2.1939 C   0  0  0  0  0  0  0  0  0  0  0  0
    9.3585   23.5263    1.7211 O   0  0  0  0  0  0  0  0  0  0  0  0
   10.9280   23.6453    6.8327 O   0  0  0  0  0  0  0  0  0  0  0  0
    9.8617   24.3125    7.3439 C   0  0  1  0  0  0  0  0  0  0  0  0
    9.7677   25.0094    8.4897 C   0  0  0  0  0  0  0  0  0  0  0  0
   11.5431   24.9793    3.0360 N   0  0  0  0  0  0  0  0  0  0  0  0
    8.2867   22.5476    1.5050 C   0  0  0  0  0  0  0  0  0  0  0  0
   10.9746   21.8772    1.7167 O   0  0  0  0  0  0  0  0  0  0  0  0
  1  2  1  0
  3  2  1  6
  1  4  1  0
  3  5  1  0
  5  6  1  0
  4  7  1  0
  5  7  1  0
  6  8  1  0
  9  8  1  1
  9 10  1  0
  9 11  1  0
 10 12  2  0
 11 13  1  0
 13 14  1  0
 10 15  1  0
  6 16  1  0
 15 16  1  0
  3 17  1  0
 16 17  1  6
 11 18  1  6
 14 19  1  0
 13 20  2  0
M  END
$$$$
92
     RDKit          3D

 20 23  0  0  0  0  0  0  0  0999 V2000
    9.6379   21.4497    1.6912 C   0  0  0  0  0  0  0  0  0  0  0  0
    8.6721   22.3973    1.9063 C   0  0  0  0  0  0  0  0  0  0  0  0
    9.0560   23.4995    2.7049 C   0  0  2  0  0  0  0  0  0  0  0  0
   10.9268   21.7103    2.1345 C   0  0  0  0  0  0  0  0  0  0  0  0
   10.2659   23.6360    3.2644 C   0  0  1  0  0  0  0  0  0  0  0  0
   11.2160   22.6838    2.9629 C   0  0  0  0  0  0  0  0  0  0  0  0
   10.5540   24.9114    4.0744 C   0  0  1  0  0  0  0  0  0  0  0  0
    9.3858   25.3954    4.6074 C   0  0  2  0  0  0  0  0  0  0  0  0
    9.4692   26.1600    5.7550 N   0  0  0  0  0  0  0  0  0  0  0  0
    8.4110   24.5765    3.5236 C   0  0  0  0  0  0  0  0  0  0  0  0
   11.8083   25.2353    4.6029 C   0  0  0  0  0  0  0  0  0  0  0  0
    8.2232   26.6127    6.1833 C   0  0  0  0  0  0  0  0  0  0  0  0
   11.8343   25.8105    5.8437 N   0  0  0  0  0  0  0  0  0  0  0  0
   13.0511   25.3020    3.9536 N   0  0  0  0  0  0  0  0  0  0  0  0
   10.6106   26.1594    6.4588 C   0  0  1  0  0  0  0  0  0  0  0  0
   10.5849   26.6682    7.8617 C   0  0  0  0  0  0  0  0  0  0  0  0
    7.1962   26.7921    5.7610 O   0  0  0  0  0  0  0  0  0  0  0  0
    8.3397   26.8862    7.8106 C   0  0  1  0  0  0  0  0  0  0  0  0
    9.4345   26.9961    8.4188 C   0  0  0  0  0  0  0  0  0  0  0  0
    6.9420   27.3595    8.3603 N   0  0  0  0  0  0  0  0  0  0  0  0
  1  2  1  0
  3  2  1  1
  1  4  1  0
  3  5  1  0
  4  6  1  0
  5  6  1  6
  5  7  1  0
  7  8  1  0
  8  9  1  0
  3 10  1  0
  8 10  1  1
  7 11  1  1
  9 12  1  0
 11 13  1  0
 11 14  2  0
  9 15  1  0
 13 15  1  0
 15 16  1  6
 12 17  2  0
 12 18  1  0
 16 19  1  0
 18 19  1  0
 18 20  1  6
M  END
$$$$
93
     RDKit          3D

 20 22  0  0  0  0  0  0  0  0999 V2000
    7.8042   23.4530    2.0953 C   0  0  0  0  0  0  0  0  0  0  0  0
    8.6685   22.7031    2.0448 C   0  0  2  0  0  0  0  0  0  0  0  0
    9.9870   22.8125    2.6039 C   0  0  2  0  0  0  0  0  0  0  0  0
    9.1622   21.5227    1.1182 N   0  0  0  0  0  0  0  0  0  0  0  0
   11.0215   21.9187    2.4553 N   0  0  0  0  0  0  0  0  0  0  0  0
    7.7873   24.5890    2.6456 C   0  0  1  0  0  0  0  0  0  0  0  0
    6.6832   25.5422    2.8202 C   0  0  1  0  0  0  0  0  0  0  0  0
   10.3617   21.1033    1.3880 C   0  0  0  0  0  0  0  0  0  0  0  0
   10.0925   23.8974    3.7066 C   0  0  0  0  0  0  0  0  0  0  0  0
    8.9449   24.7992    3.6196 C   0  0  0  0  0  0  0  0  0  0  0  0
    8.9896   25.9179    4.5717 C   0  0  0  0  0  0  0  0  0  0  0  0
    9.4616   25.6855    5.8883 N   0  0  0  0  0  0  0  0  0  0  0  0
    5.7451   25.4464    1.8681 C   0  0  0  0  0  0  0  0  0  0  0  0
    4.9395   26.5641    1.6764 O   0  0  0  0  0  0  0  0  0  0  0  0
    8.6469   25.1763    6.9001 C   0  0  0  0  0  0  0  0  0  0  0  0
    5.9688   25.7067    4.0416 N   0  0  0  0  0  0  0  0  0  0  0  0
    9.3155   24.8757    7.9420 C   0  0  0  0  0  0  0  0  0  0  0  0
    5.4153   24.4174    1.1929 O   0  0  0  0  0  0  0  0  0  0  0  0
   10.6585   24.9670    7.6702 C   0  0  0  0  0  0  0  0  0  0  0  0
   10.7281   25.4209    6.3619 C   0  0  0  0  0  0  0  0  0  0  0  0
  2  1  1  6
  2  3  1  0
  2  4  1  0
  3  5  1  0
  6  1  1  1
  6  7  1  0
  4  8  1  0
  5  8  1  0
  3  9  1  1
  6 10  1  0
  9 10  1  0
 10 11  1  0
 11 12  1  0
  7 13  1  0
 13 14  1  0
 12 15  1  0
  7 16  1  1
 15 17  1  0
 13 18  2  0
 17 19  1  0
 12 20  1  0
 19 20  1  0
M  END
$$$$
94
     RDKit          3D

 20 20  0  0  0  0  0  0  0  0999 V2000
    8.4262   28.2013    8.2709 C   0  0  0  0  0  0  0  0  0  0  0  0
    9.2342   27.2918    8.9477 C   0  0  0  0  0  0  0  0  0  0  0  0
    9.2119   26.1963    8.1698 C   0  0  0  0  0  0  0  0  0  0  0  0
    7.8917   28.2175    7.0914 C   0  0  0  0  0  0  0  0  0  0  0  0
    8.7343   26.0128    6.8865 C   0  0  0  0  0  0  0  0  0  0  0  0
    9.0288   24.7630    6.2307 N   0  0  0  0  0  0  0  0  0  0  0  0
    8.0260   27.0160    6.3335 C   0  0  0  0  0  0  0  0  0  0  0  0
    9.4444   24.7375    4.9446 C   0  0  0  0  0  0  0  0  0  0  0  0
   10.1943   23.5549    4.6639 C   0  0  2  0  0  0  0  0  0  0  0  0
   10.9153   22.9487    5.7370 C   0  0  0  0  0  0  0  0  0  0  0  0
   11.1773   23.5735    3.4587 C   0  0  1  0  0  0  0  0  0  0  0  0
   11.5742   22.3876    3.0025 C   0  0  0  0  0  0  0  0  0  0  0  0
   12.1605   23.6667    6.1007 N   0  0  0  0  0  0  0  0  0  0  0  0
   11.3974   24.6877    2.6961 C   0  0  0  0  0  0  0  0  0  0  0  0
   10.6578   21.5327    2.1795 C   0  0  0  0  0  0  0  0  0  0  0  0
   10.5230   22.0843    6.4275 O   0  0  0  0  0  0  0  0  0  0  0  0
   12.6165   24.8047    5.5703 C   0  0  0  0  0  0  0  0  0  0  0  0
   12.9175   22.9246    7.1246 C   0  0  0  0  0  0  0  0  0  0  0  0
    9.2486   25.5867    4.0923 O   0  0  0  0  0  0  0  0  0  0  0  0
    9.3036   22.1011    1.8391 C   0  0  0  0  0  0  0  0  0  0  0  0
  1  2  1  0
  2  3  1  0
  1  4  1  0
  3  5  1  0
  5  6  1  0
  4  7  1  0
  5  7  1  0
  6  8  1  0
  9  8  1  1
  9 10  1  0
  9 11  1  0
 11 12  1  0
 10 13  1  0
 11 14  1  6
 12 15  1  0
 10 16  2  0
 13 17  1  0
 13 18  1  0
  8 19  2  0
 15 20  1  0
M  END
$$$$
95
     RDKit          3D

 20 23  0  0  0  0  0  0  0  0999 V2000
    6.8884   27.0330    8.2570 C   0  0  0  0  0  0  0  0  0  0  0  0
    8.1262   26.8767    8.8133 C   0  0  0  0  0  0  0  0  0  0  0  0
    8.9435   25.8558    8.3217 C   0  0  2  0  0  0  0  0  0  0  0  0
   10.2755   25.7337    8.5748 C   0  0  0  0  0  0  0  0  0  0  0  0
    6.4503   26.3269    7.1379 N   0  0  0  0  0  0  0  0  0  0  0  0
    8.5997   25.5217    6.8392 C   0  0  2  0  0  0  0  0  0  0  0  0
    7.3820   25.6538    6.3999 C   0  0  0  0  0  0  0  0  0  0  0  0
   11.0461   25.0436    7.7000 C   0  0  0  0  0  0  0  0  0  0  0  0
    9.7423   24.8261    6.3466 C   0  0  2  0  0  0  0  0  0  0  0  0
    9.9016   24.2760    5.1419 C   0  0  0  0  0  0  0  0  0  0  0  0
    9.1377   24.2902    4.1962 O   0  0  0  0  0  0  0  0  0  0  0  0
   11.0937   23.5014    4.8230 C   0  0  1  0  0  0  0  0  0  0  0  0
   12.1752   23.2474    5.8579 O   0  0  0  0  0  0  0  0  0  0  0  0
    9.5470   23.6791    3.0504 C   0  0  2  0  0  0  0  0  0  0  0  0
    8.8426   23.3079    1.8408 C   0  0  1  0  0  0  0  0  0  0  0  0
   11.0095   22.8828    3.6504 C   0  0  0  0  0  0  0  0  0  0  0  0
    9.4964   22.2045    1.1841 C   0  0  0  0  0  0  0  0  0  0  0  0
    7.7205   23.9866    1.6059 C   0  0  0  0  0  0  0  0  0  0  0  0
   10.8032   21.6851    1.3828 C   0  0  0  0  0  0  0  0  0  0  0  0
   11.4133   21.9743    2.6522 C   0  0  0  0  0  0  0  0  0  0  0  0
  1  2  1  0
  3  2  1  6
  3  4  1  0
  1  5  1  0
  3  6  1  0
  5  7  1  0
  6  7  1  1
  4  8  1  0
  6  9  1  0
  8  9  1  0
  9 10  1  6
 10 11  1  0
 10 12  1  0
 12 13  1  1
 14 11  1  1
 14 15  1  0
 12 16  1  0
 14 16  1  0
 15 17  1  0
 15 18  1  1
 17 19  1  0
 16 20  1  0
 19 20  1  0
M  END
$$$$
96
     RDKit          3D

 20 22  0  0  0  0  0  0  0  0999 V2000
    6.8884   27.0330    8.2570 C   0  0  0  0  0  0  0  0  0  0  0  0
    8.1262   26.8767    8.8133 C   0  0  0  0  0  0  0  0  0  0  0  0
    8.9435   25.8558    8.3217 C   0  0  2  0  0  0  0  0  0  0  0  0
   10.2755   25.7337    8.5748 C   0  0  0  0  0  0  0  0  0  0  0  0
    6.4503   26.3269    7.1379 N   0  0  0  0  0  0  0  0  0  0  0  0
    8.5997   25.5217    6.8392 C   0  0  2  0  0  0  0  0  0  0  0  0
    7.3820   25.6538    6.3999 C   0  0  0  0  0  0  0  0  0  0  0  0
   11.0461   25.0436    7.7000 C   0  0  0  0  0  0  0  0  0  0  0  0
    9.7423   24.8261    6.3466 C   0  0  2  0  0  0  0  0  0  0  0  0
    9.9016   24.2760    5.1419 C   0  0  0  0  0  0  0  0  0  0  0  0
    9.1377   24.2902    4.1962 O   0  0  0  0  0  0  0  0  0  0  0  0
   11.0937   23.5014    4.8230 C   0  0  0  0  0  0  0  0  0  0  0  0
    9.3283   23.7848    2.9638 C   0  0  1  0  0  0  0  0  0  0  0  0
   10.3562   22.9085    2.7103 C   0  0  2  0  0  0  0  0  0  0  0  0
    8.1606   24.0273    1.8994 C   0  0  0  0  0  0  0  0  0  0  0  0
    7.8594   22.9404    1.1623 F   0  0  0  0  0  0  0  0  0  0  0  0
   11.2988   22.8246    3.6934 C   0  0  0  0  0  0  0  0  0  0  0  0
   10.5673   22.0678    1.3190 Cl  0  0  0  0  0  0  0  0  0  0  0  0
    8.6104   25.0617    1.1046 F   0  0  0  0  0  0  0  0  0  0  0  0
    7.0125   24.4117    2.6469 F   0  0  0  0  0  0  0  0  0  0  0  0
  1  2  1  0
  3  2  1  6
  3  4  1  0
  1  5  1  0
  3  6  1  0
  5  7  1  0
  6  7  1  1
  4  8  1  0
  6  9  1  0
  8  9  1  0
  9 10  1  6
 10 11  1  0
 10 12  1  0
 11 13  1  0
 13 14  1  0
 13 15  1  1
 15 16  1  0
 12 17  1  0
 14 17  1  0
 14 18  1  6
 15 19  1  0
 15 20  1  0
M  END
$$$$
97
     RDKit          3D

 20 23  0  0  0  0  0  0  0  0999 V2000
    7.8785   28.2159    7.0732 C   0  0  0  0  0  0  0  0  0  0  0  0
    8.5001   27.8669    8.2413 C   0  0  0  0  0  0  0  0  0  0  0  0
    9.2319   26.6537    8.4432 C   0  0  0  0  0  0  0  0  0  0  0  0
    9.3168   25.8826    7.3778 C   0  0  1  0  0  0  0  0  0  0  0  0
    8.8046   26.2263    6.3520 C   0  0  2  0  0  0  0  0  0  0  0  0
    8.0687   27.3349    6.0452 C   0  0  0  0  0  0  0  0  0  0  0  0
    8.9787   25.1449    5.3090 C   0  0  2  0  0  0  0  0  0  0  0  0
    9.8122   24.1560    5.7331 C   0  0  1  0  0  0  0  0  0  0  0  0
   10.4190   23.2397    4.6963 C   0  0  0  0  0  0  0  0  0  0  0  0
   11.1450   22.1781    5.0086 O   0  0  0  0  0  0  0  0  0  0  0  0
   10.2628   24.5765    7.5371 S   0  0  0  0  0  0  0  0  0  0  0  0
   10.4081   23.7138    3.5589 N   0  0  0  0  0  0  0  0  0  0  0  0
   11.0261   22.9908    2.3882 C   0  0  0  0  0  0  0  0  0  0  0  0
    9.6721   24.8778    3.1297 C   0  0  1  0  0  0  0  0  0  0  0  0
    9.3000   24.6574    1.7624 C   0  0  0  0  0  0  0  0  0  0  0  0
    8.4609   25.2553    4.0166 C   0  0  0  0  0  0  0  0  0  0  0  0
    9.9614   23.2415    1.3206 C   0  0  2  0  0  0  0  0  0  0  0  0
    9.0495   22.1014    1.3066 C   0  0  0  0  0  0  0  0  0  0  0  0
    9.6039   21.0295    0.7244 N   0  0  0  0  0  0  0  0  0  0  0  0
    7.9470   22.1975    1.4257 O   0  0  0  0  0  0  0  0  0  0  0  0
  1  2  1  0
  2  3  1  0
  4  3  1  6
  4  5  1  0
  1  6  1  0
  5  6  1  1
  5  7  1  0
  7  8  1  0
  8  9  1  0
  9 10  2  0
  4 11  1  0
  8 11  1  6
  9 12  1  0
 12 13  1  0
 12 14  1  0
 14 15  1  6
  7 16  1  6
 14 16  1  0
 13 17  1  0
 15 17  1  0
 17 18  1  1
 18 19  1  0
 18 20  2  0
M  END
$$$$
98
     RDKit          3D

 20 22  0  0  0  0  0  0  0  0999 V2000
    7.6235   28.1098    7.8805 N   0  0  0  0  0  0  0  0  0  0  0  0
    8.7563   27.5902    8.4482 C   0  0  0  0  0  0  0  0  0  0  0  0
    7.2671   27.5450    6.7347 C   0  0  0  0  0  0  0  0  0  0  0  0
    9.4453   26.5172    7.9842 C   0  0  0  0  0  0  0  0  0  0  0  0
    7.9301   26.6109    6.2767 N   0  0  0  0  0  0  0  0  0  0  0  0
    8.9986   26.0311    6.9495 C   0  0  1  0  0  0  0  0  0  0  0  0
    9.6573   24.9359    6.2158 C   0  0  2  0  0  0  0  0  0  0  0  0
   10.8749   24.6672    6.4633 C   0  0  0  0  0  0  0  0  0  0  0  0
   11.5391   23.5526    5.7891 N   0  0  0  0  0  0  0  0  0  0  0  0
    9.4673   25.0525    4.6635 C   0  0  0  0  0  0  0  0  0  0  0  0
   11.4551   23.6491    4.3763 C   0  0  0  0  0  0  0  0  0  0  0  0
   10.0527   23.8605    4.0594 C   0  0  1  0  0  0  0  0  0  0  0  0
   12.2877   23.1668    3.6005 O   0  0  0  0  0  0  0  0  0  0  0  0
    9.2573   22.6856    4.3462 O   0  0  0  0  0  0  0  0  0  0  0  0
   10.0261   24.1963    2.4869 C   0  0  2  0  0  0  0  0  0  0  0  0
    9.3033   25.3389    2.3303 O   0  0  0  0  0  0  0  0  0  0  0  0
    9.6880   22.9811    1.6898 C   0  0  0  0  0  0  0  0  0  0  0  0
   10.5690   21.9469    1.5815 O   0  0  0  0  0  0  0  0  0  0  0  0
    8.9726   25.8293    3.8427 C   0  0  0  0  0  0  0  0  0  0  0  0
   12.8800   23.1782    6.2998 C   0  0  0  0  0  0  0  0  0  0  0  0
  1  2  1  0
  1  3  1  0
  2  4  1  0
  3  5  1  0
  6  4  1  6
  5  6  1  0
  6  7  1  0
  7  8  1  6
  8  9  1  0
  7 10  1  0
  9 11  1  0
 10 12  1  0
 11 12  1  0
 11 13  2  0
 12 14  1  6
 12 15  1  0
 15 16  1  0
 15 17  1  6
 17 18  1  0
 10 19  2  0
 16 19  1  0
  9 20  1  0
M  END
$$$$
99
     RDKit          3D

 20 22  0  0  0  0  0  0  0  0999 V2000
   10.1015   21.4335    1.5568 C   0  0  0  0  0  0  0  0  0  0  0  0
    9.0756   22.2549    1.4200 C   0  0  0  0  0  0  0  0  0  0  0  0
   10.9996   21.6763    2.5971 C   0  0  0  0  0  0  0  0  0  0  0  0
   10.7213   22.8722    3.2535 C   0  0  0  0  0  0  0  0  0  0  0  0
    8.8238   23.4253    2.1421 C   0  0  0  0  0  0  0  0  0  0  0  0
    9.7283   23.6851    3.1403 C   0  0  0  0  0  0  0  0  0  0  0  0
   11.7534   23.1980    4.4291 C   0  0  2  0  0  0  0  0  0  0  0  0
   11.1169   22.7802    5.6212 O   0  0  0  0  0  0  0  0  0  0  0  0
   10.8664   23.7251    6.5227 C   0  0  2  0  0  0  0  0  0  0  0  0
    9.7285   24.0779    6.8019 C   0  0  0  0  0  0  0  0  0  0  0  0
    9.4827   25.3641    7.2267 C   0  0  1  0  0  0  0  0  0  0  0  0
   10.5151   26.2373    7.4635 O   0  0  0  0  0  0  0  0  0  0  0  0
    8.2174   26.0181    7.2371 O   0  0  0  0  0  0  0  0  0  0  0  0
    7.9066   27.2440    7.8627 C   0  0  2  0  0  0  0  0  0  0  0  0
    8.8535   27.5708    8.8406 C   0  0  0  0  0  0  0  0  0  0  0  0
   10.1987   27.2582    8.3807 C   0  0  0  0  0  0  0  0  0  0  0  0
    6.5392   27.2742    8.1505 O   0  0  0  0  0  0  0  0  0  0  0  0
   12.1257   24.5805    4.2010 C   0  0  0  0  0  0  0  0  0  0  0  0
   12.1558   25.3169    5.3233 O   0  0  0  0  0  0  0  0  0  0  0  0
   11.6837   25.0154    6.4676 C   0  0  0  0  0  0  0  0  0  0  0  0
  1  2  1  0
  1  3  1  0
  3  4  1  0
  2  5  1  0
  4  6  1  0
  5  6  1  0
  7  4  1  6
  7  8  1  0
  8  9  1  0
  9 10  1  6
 11 10  1  6
 11 12  1  0
 11 13  1  0
 13 14  1  0
 14 15  1  0
 12 16  1  0
 15 16  1  0
 14 17  1  1
  7 18  1  0
 18 19  1  0
  9 20  1  0
 19 20  1  0
M  END
$$$$
