0
     RDKit          3D

 10 10  0  0  0  0  0  0  0  0999 V2000
   32.1120   67.3066    6.2523 N   0  0  0  0  0  0  0  0  0  0  0  0
   30.8302   66.8634    6.4369 C   0  0  0  0  0  0  0  0  0  0  0  0
   29.9162   66.9303    5.6223 O   0  0  0  0  0  0  0  0  0  0  0  0
   30.6815   66.1624    7.6972 C   0  0  2  0  0  0  0  0  0  0  0  0
   33.0418   66.8904    7.2327 C   0  0  1  0  0  0  0  0  0  0  0  0
   32.0695   66.3531    8.4197 C   0  0  2  0  0  0  0  0  0  0  0  0
   30.0971   64.9884    7.5486 O   0  0  0  0  0  0  0  0  0  0  0  0
   32.3410   65.9487    9.6817 C   0  0  0  0  0  0  0  0  0  0  0  0
   34.0781   66.1719    6.8008 O   0  0  0  0  0  0  0  0  0  0  0  0
   31.6107   65.1562   10.3285 O   0  0  0  0  0  0  0  0  0  0  0  0
  1  2  1  0
  2  3  2  0
  2  4  1  0
  1  5  1  0
  4  6  1  0
  5  6  1  0
  4  7  1  6
  6  8  1  6
  5  9  1  6
  8 10  1  0
M  END
$$$$
1
     RDKit          3D

 11 11  0  0  0  0  0  0  0  0999 V2000
   28.8153   67.4298    6.4406 C   0  0  0  0  0  0  0  0  0  0  0  0
   27.9851   66.6153    7.1638 C   0  0  0  0  0  0  0  0  0  0  0  0
   30.2124   67.0477    6.5837 C   0  0  0  0  0  0  0  0  0  0  0  0
   26.6021   66.6607    7.2050 O   0  0  0  0  0  0  0  0  0  0  0  0
   28.4690   65.5825    8.0767 C   0  0  0  0  0  0  0  0  0  0  0  0
   29.8322   65.4290    8.2957 N   0  0  0  0  0  0  0  0  0  0  0  0
   30.7087   66.1571    7.5118 C   0  0  0  0  0  0  0  0  0  0  0  0
   32.1392   65.9429    7.7279 C   0  0  2  0  0  0  0  0  0  0  0  0
   32.4882   65.7620    9.1006 C   0  0  0  0  0  0  0  0  0  0  0  0
   33.1273   66.5148    6.8998 N   0  0  0  0  0  0  0  0  0  0  0  0
   33.0058   66.8845    9.8082 O   0  0  0  0  0  0  0  0  0  0  0  0
  1  2  1  0
  1  3  1  0
  2  4  1  0
  2  5  1  0
  5  6  1  0
  3  7  1  0
  6  7  1  0
  7  8  1  0
  8  9  1  0
  8 10  1  1
  9 11  1  0
M  END
$$$$
10
     RDKit          3D

 13 14  0  0  0  0  0  0  0  0999 V2000
   31.8855   67.5502    6.0072 O   0  0  0  0  0  0  0  0  0  0  0  0
   31.4276   66.6777    6.9140 C   0  0  1  0  0  0  0  0  0  0  0  0
   32.2870   66.6230    8.0667 C   0  0  1  0  0  0  0  0  0  0  0  0
   31.7949   66.1065    9.2722 C   0  0  1  0  0  0  0  0  0  0  0  0
   33.6965   66.7997    7.9687 O   0  0  0  0  0  0  0  0  0  0  0  0
   30.0294   66.5262    7.0208 C   0  0  0  0  0  0  0  0  0  0  0  0
   29.1272   66.7083    5.8655 C   0  0  0  0  0  0  0  0  0  0  0  0
   29.5189   66.2193    8.3680 C   0  0  1  0  0  0  0  0  0  0  0  0
   27.7756   66.8025    6.2989 C   0  0  0  0  0  0  0  0  0  0  0  0
   32.6742   65.9484   10.3360 O   0  0  0  0  0  0  0  0  0  0  0  0
   27.4725   66.1239    7.5177 C   0  0  0  0  0  0  0  0  0  0  0  0
   28.2557   66.0488    8.5509 C   0  0  0  0  0  0  0  0  0  0  0  0
   30.5137   65.9767    9.4360 C   0  0  0  0  0  0  0  0  0  0  0  0
  2  1  1  1
  2  3  1  0
  3  4  1  0
  3  5  1  6
  2  6  1  0
  6  7  1  0
  6  8  1  0
  7  9  1  0
  4 10  1  1
  9 11  1  0
  8 12  1  6
 11 12  1  0
  4 13  1  0
  8 13  1  0
M  END
$$$$
100
     RDKit          3D

 21 23  0  0  0  0  0  0  0  0999 V2000
   33.6183   66.0059    7.4162 O   0  0  0  0  0  0  0  0  0  0  0  0
   32.6565   66.5888    8.1501 C   0  0  2  0  0  0  0  0  0  0  0  0
   32.4345   65.9900    9.3922 C   0  0  0  0  0  0  0  0  0  0  0  0
   31.0784   66.0742    9.8154 N   0  0  0  0  0  0  0  0  0  0  0  0
   31.3929   66.6631    7.3121 C   0  0  1  0  0  0  0  0  0  0  0  0
   30.5154   65.2187   10.6650 C   0  0  0  0  0  0  0  0  0  0  0  0
   29.0765   65.4177   11.0326 C   0  0  1  0  0  0  0  0  0  0  0  0
   30.3837   66.5166    8.5138 C   0  0  2  0  0  0  0  0  0  0  0  0
   31.0187   67.1888    6.2300 C   0  0  0  0  0  0  0  0  0  0  0  0
   28.6472   65.0140   12.1774 C   0  0  2  0  0  0  0  0  0  0  0  0
   28.9900   66.9696   10.6891 C   0  0  2  0  0  0  0  0  0  0  0  0
   27.5420   67.3829   10.9082 O   0  0  0  0  0  0  0  0  0  0  0  0
   28.9941   66.9295    9.0747 C   0  0  0  0  0  0  0  0  0  0  0  0
   29.9269   67.0472    5.7491 O   0  0  0  0  0  0  0  0  0  0  0  0
   27.9761   66.7902    8.1616 N   0  0  0  0  0  0  0  0  0  0  0  0
   27.4580   64.3709   12.2045 O   0  0  0  0  0  0  0  0  0  0  0  0
   27.0583   63.6932   13.3991 C   0  0  0  0  0  0  0  0  0  0  0  0
   27.4369   64.3324   14.4815 C   0  0  0  0  0  0  0  0  0  0  0  0
   29.2505   65.2462   13.4806 C   0  0  0  0  0  0  0  0  0  0  0  0
   28.6182   64.7049   14.4708 N   0  0  0  0  0  0  0  0  0  0  0  0
   27.8528   66.5641    7.0029 O   0  0  0  0  0  0  0  0  0  0  0  0
  2  1  1  6
  2  3  1  0
  3  4  1  0
  2  5  1  0
  4  6  1  0
  7  6  1  1
  8  4  1  1
  5  8  1  0
  5  9  1  1
  7 10  1  0
  7 11  1  0
 11 12  1  6
  8 13  1  0
 11 13  1  0
  9 14  1  0
 13 15  2  3
 10 16  1  0
 16 17  1  0
 17 18  1  0
 10 19  1  1
 18 20  1  0
 19 20  1  0
 15 21  1  0
M  END
$$$$
101
     RDKit          3D

 21 22  0  0  0  0  0  0  0  0999 V2000
   32.7927   65.3669   10.0780 O   0  0  0  0  0  0  0  0  0  0  0  0
   31.9982   66.1379    9.3879 C   0  0  1  0  0  0  0  0  0  0  0  0
   32.5022   66.4596    8.0288 C   0  0  2  0  0  0  0  0  0  0  0  0
   30.6999   65.3500    9.3677 C   0  0  1  0  0  0  0  0  0  0  0  0
   33.8084   66.7124    7.7653 O   0  0  0  0  0  0  0  0  0  0  0  0
   29.9792   65.4181   10.5324 N   0  0  0  0  0  0  0  0  0  0  0  0
   29.9612   65.7207    8.1500 O   0  0  0  0  0  0  0  0  0  0  0  0
   31.4129   67.3957    7.3823 C   0  0  2  0  0  0  0  0  0  0  0  0
   28.7675   64.7698   10.7943 C   0  0  0  0  0  0  0  0  0  0  0  0
   30.3398   66.4447    7.1875 C   0  0  1  0  0  0  0  0  0  0  0  0
   30.4104   65.5224    6.0695 C   0  0  0  0  0  0  0  0  0  0  0  0
   31.8767   67.9585    6.1488 O   0  0  0  0  0  0  0  0  0  0  0  0
   29.4792   64.4862    6.1144 O   0  0  0  0  0  0  0  0  0  0  0  0
   28.2014   64.1216    9.9898 O   0  0  0  0  0  0  0  0  0  0  0  0
   28.2800   64.8296   12.1824 C   0  0  0  0  0  0  0  0  0  0  0  0
   28.2807   63.6267   12.9379 C   0  0  0  0  0  0  0  0  0  0  0  0
   27.8449   65.9521   12.8277 C   0  0  0  0  0  0  0  0  0  0  0  0
   27.8085   63.5458   14.0011 C   0  0  0  0  0  0  0  0  0  0  0  0
   27.9153   67.2967   12.1541 C   0  0  0  0  0  0  0  0  0  0  0  0
   27.2994   64.6578   14.6904 C   0  0  0  0  0  0  0  0  0  0  0  0
   27.3261   65.9485   14.0917 C   0  0  0  0  0  0  0  0  0  0  0  0
  2  1  1  1
  2  3  1  0
  2  4  1  0
  3  5  1  1
  4  6  1  1
  4  7  1  0
  3  8  1  0
  6  9  1  0
  7 10  1  0
  8 10  1  0
 10 11  1  6
  8 12  1  6
 11 13  1  0
  9 14  2  0
  9 15  1  0
 15 16  1  0
 15 17  1  0
 16 18  1  0
 17 19  1  0
 18 20  1  0
 17 21  1  0
 20 21  1  0
M  END
$$$$
102
     RDKit          3D

 21 24  0  0  0  0  0  0  0  0999 V2000
   32.5779   67.4165    6.5407 N   0  0  0  0  0  0  0  0  0  0  0  0
   32.8694   66.6760    7.6722 C   0  0  2  0  0  0  0  0  0  0  0  0
   31.7539   66.3693    8.5446 C   0  0  1  0  0  0  0  0  0  0  0  0
   31.2471   67.4718    6.1509 C   0  0  0  0  0  0  0  0  0  0  0  0
   30.4572   66.3916    8.1217 C   0  0  2  0  0  0  0  0  0  0  0  0
   34.1782   66.3815    7.9739 N   0  0  0  0  0  0  0  0  0  0  0  0
   30.2108   66.9990    6.9109 C   0  0  0  0  0  0  0  0  0  0  0  0
   32.0985   65.6727    9.9077 C   0  0  1  0  0  0  0  0  0  0  0  0
   29.6578   65.9878    9.1949 C   0  0  1  0  0  0  0  0  0  0  0  0
   28.6521   67.1371    6.4657 C   0  0  0  0  0  0  0  0  0  0  0  0
   28.3193   65.8709    9.2264 C   0  0  0  0  0  0  0  0  0  0  0  0
   33.0389   65.5457   10.3863 O   0  0  0  0  0  0  0  0  0  0  0  0
   30.6208   65.5698   10.2135 N   0  0  0  0  0  0  0  0  0  0  0  0
   27.7760   66.2196    7.3003 C   0  0  0  0  0  0  0  0  0  0  0  0
   29.8662   65.1339   11.3954 C   0  0  0  0  0  0  0  0  0  0  0  0
   27.9969   65.4113   10.6098 C   0  0  0  0  0  0  0  0  0  0  0  0
   28.6316   64.9646   11.4924 C   0  0  2  0  0  0  0  0  0  0  0  0
   28.1749   64.3961   12.8350 C   0  0  0  0  0  0  0  0  0  0  0  0
   27.4209   65.0403   13.5011 O   0  0  0  0  0  0  0  0  0  0  0  0
   27.4534   66.0532    8.3626 C   0  0  0  0  0  0  0  0  0  0  0  0
   28.6478   63.2515   13.2874 N   0  0  0  0  0  0  0  0  0  0  0  0
  1  2  1  0
  3  2  1  6
  1  4  1  0
  3  5  1  0
  2  6  1  1
  4  7  1  0
  5  7  1  1
  3  8  1  0
  5  9  1  0
  7 10  1  0
  9 11  1  6
  8 12  1  1
  8 13  1  0
  9 13  1  0
 10 14  1  0
 13 15  1  0
 11 16  1  0
 15 17  1  0
 16 17  1  0
 17 18  1  1
 18 19  2  0
 11 20  1  0
 14 20  1  0
 18 21  1  0
M  END
$$$$
103
     RDKit          3D

 21 21  0  0  0  0  0  0  0  0999 V2000
   31.8855   67.5502    6.0072 O   0  0  0  0  0  0  0  0  0  0  0  0
   31.4276   66.6777    6.9140 C   0  0  2  0  0  0  0  0  0  0  0  0
   30.0670   66.5588    7.1794 C   0  0  1  0  0  0  0  0  0  0  0  0
   32.4118   66.3903    7.9567 C   0  0  1  0  0  0  0  0  0  0  0  0
   29.0800   66.8566    6.1230 C   0  0  0  0  0  0  0  0  0  0  0  0
   29.8014   65.8209    8.2790 O   0  0  0  0  0  0  0  0  0  0  0  0
   27.7160   66.6046    6.7278 O   0  0  0  0  0  0  0  0  0  0  0  0
   33.7789   66.5582    7.7248 O   0  0  0  0  0  0  0  0  0  0  0  0
   32.1034   66.1778    9.2051 C   0  0  1  0  0  0  0  0  0  0  0  0
   30.6761   65.8450    9.4315 C   0  0  2  0  0  0  0  0  0  0  0  0
   32.9529   65.3391    9.9141 O   0  0  0  0  0  0  0  0  0  0  0  0
   30.1894   65.4696   10.6485 N   0  0  0  0  0  0  0  0  0  0  0  0
   29.5147   66.1835   11.5222 C   0  0  0  0  0  0  0  0  0  0  0  0
   29.0543   65.5922   12.7676 C   0  0  1  0  0  0  0  0  0  0  0  0
   28.9896   64.2047   12.7673 C   0  0  2  0  0  0  0  0  0  0  0  0
   27.7289   63.8348   12.6328 C   0  0  2  0  0  0  0  0  0  0  0  0
   29.9813   65.8549   13.9223 O   0  0  0  0  0  0  0  0  0  0  0  0
   27.2217   63.1972   13.6240 O   0  0  0  0  0  0  0  0  0  0  0  0
   27.3245   62.8316   11.4202 C   0  0  0  0  0  0  0  0  0  0  0  0
   26.1798   62.6221   11.0930 O   0  0  0  0  0  0  0  0  0  0  0  0
   29.4811   63.5582   13.9171 O   0  0  0  0  0  0  0  0  0  0  0  0
  2  1  1  1
  2  3  1  0
  2  4  1  0
  3  5  1  6
  3  6  1  0
  5  7  1  0
  4  8  1  1
  4  9  1  0
  6 10  1  0
  9 10  1  0
  9 11  1  6
 10 12  1  6
 12 13  1  0
 13 14  1  0
 14 15  1  0
 15 16  1  0
 14 17  1  1
 16 18  1  1
 16 19  1  0
 19 20  1  0
 15 21  1  1
M  END
$$$$
104
     RDKit          3D

 21 25  0  0  0  0  0  0  0  0999 V2000
   33.6942   66.2004    7.3852 O   0  0  0  0  0  0  0  0  0  0  0  0
   32.5292   66.8086    7.4600 C   0  0  2  0  0  0  0  0  0  0  0  0
   31.6837   66.1778    8.4615 C   0  0  1  0  0  0  0  0  0  0  0  0
   31.7955   66.7485    6.1941 C   0  0  1  0  0  0  0  0  0  0  0  0
   32.2235   66.1947    9.7870 N   0  0  0  0  0  0  0  0  0  0  0  0
   30.3208   66.7341    8.4655 C   0  0  2  0  0  0  0  0  0  0  0  0
   30.3800   67.1925    6.3255 C   0  0  0  0  0  0  0  0  0  0  0  0
   31.6581   65.2672   10.6451 C   0  0  0  0  0  0  0  0  0  0  0  0
   29.5769   65.9736    9.6195 C   0  0  2  0  0  0  0  0  0  0  0  0
   28.2037   66.4897    9.7241 C   0  0  1  0  0  0  0  0  0  0  0  0
   30.2112   65.6531   10.8517 C   0  0  0  0  0  0  0  0  0  0  0  0
   29.3733   65.4199   11.9787 C   0  0  0  0  0  0  0  0  0  0  0  0
   29.8862   64.8335   13.1793 N   0  0  0  0  0  0  0  0  0  0  0  0
   28.9914   64.6042   14.1421 N   0  0  0  0  0  0  0  0  0  0  0  0
   29.6441   66.4164    7.2647 C   0  0  2  0  0  0  0  0  0  0  0  0
   32.5705   67.6823    5.2799 N   0  0  0  0  0  0  0  0  0  0  0  0
   27.7552   64.6952   13.7595 C   0  0  0  0  0  0  0  0  0  0  0  0
   28.1834   66.9368    7.2084 C   0  0  0  0  0  0  0  0  0  0  0  0
   27.4301   66.2622    8.3811 C   0  0  0  0  0  0  0  0  0  0  0  0
   27.9571   65.4279   12.2132 C   0  0  2  0  0  0  0  0  0  0  0  0
   27.2090   65.9100   11.0299 C   0  0  0  0  0  0  0  0  0  0  0  0
  2  1  1  6
  2  3  1  0
  2  4  1  0
  3  5  1  1
  3  6  1  0
  4  7  1  0
  5  8  1  0
  6  9  1  0
  9 10  1  0
  8 11  1  0
  9 11  1  1
 11 12  2  0
 12 13  1  0
 13 14  1  0
  6 15  1  6
 15  7  1  6
  4 16  1  6
 14 17  1  0
 15 18  1  0
 10 19  1  6
 18 19  1  0
 12 20  1  0
 20 17  1  6
 10 21  1  0
 20 21  1  0
M  END
$$$$
105
     RDKit          3D

 21 23  0  0  0  0  0  0  0  0999 V2000
   33.4806   66.0184    6.9440 O   0  0  0  0  0  0  0  0  0  0  0  0
   32.4302   66.8734    7.2195 C   0  0  1  0  0  0  0  0  0  0  0  0
   31.7933   67.3288    6.1072 C   0  0  0  0  0  0  0  0  0  0  0  0
   30.2882   67.0145    6.3196 C   0  0  0  0  0  0  0  0  0  0  0  0
   31.6157   66.2626    8.3424 C   0  0  2  0  0  0  0  0  0  0  0  0
   30.2260   66.4056    7.7430 C   0  0  2  0  0  0  0  0  0  0  0  0
   31.7804   66.7444    9.7064 C   0  0  0  0  0  0  0  0  0  0  0  0
   32.9622   65.9377   10.3306 N   0  0  0  0  0  0  0  0  0  0  0  0
   29.1621   67.0949    5.6653 C   0  0  0  0  0  0  0  0  0  0  0  0
   29.1150   65.5191    7.8790 C   0  0  1  0  0  0  0  0  0  0  0  0
   28.6455   65.2737    9.2453 O   0  0  0  0  0  0  0  0  0  0  0  0
   29.1524   64.9692   10.2413 C   0  0  2  0  0  0  0  0  0  0  0  0
   28.1193   66.5835    6.5362 C   0  0  0  0  0  0  0  0  0  0  0  0
   27.9884   65.6243    7.3601 C   0  0  0  0  0  0  0  0  0  0  0  0
   28.3666   64.7103   11.4050 C   0  0  0  0  0  0  0  0  0  0  0  0
   27.2084   64.2094   11.1918 C   0  0  0  0  0  0  0  0  0  0  0  0
   28.9861   64.8986   12.6795 C   0  0  0  0  0  0  0  0  0  0  0  0
   28.2140   64.4986   13.7742 C   0  0  0  0  0  0  0  0  0  0  0  0
   30.4489   64.9748   10.4744 O   0  0  0  0  0  0  0  0  0  0  0  0
   26.9398   63.9716   13.6533 C   0  0  0  0  0  0  0  0  0  0  0  0
   26.3566   63.8443   12.3349 C   0  0  0  0  0  0  0  0  0  0  0  0
  2  1  1  6
  2  3  1  0
  3  4  1  0
  2  5  1  0
  6  4  1  6
  5  6  1  0
  5  7  1  1
  7  8  1  0
  4  9  1  0
  6 10  1  0
 10 11  1  1
 11 12  1  0
  9 13  1  0
 10 14  1  0
 13 14  1  0
 12 15  1  0
 15 16  1  0
 15 17  1  0
 17 18  1  0
 12 19  1  1
 18 20  1  0
 16 21  1  0
 20 21  1  0
M  END
$$$$
106
     RDKit          3D

 21 24  0  0  0  0  0  0  0  0999 V2000
   31.5766   67.4252    5.9768 O   0  0  0  0  0  0  0  0  0  0  0  0
   31.9935   66.8348    7.0649 C   0  0  0  0  0  0  0  0  0  0  0  0
   33.3336   66.5498    7.1900 N   0  0  0  0  0  0  0  0  0  0  0  0
   33.7985   66.1247    8.4182 N   0  0  0  0  0  0  0  0  0  0  0  0
   31.1435   66.2621    8.0702 C   0  0  1  0  0  0  0  0  0  0  0  0
   32.7453   66.0410    9.2966 C   0  0  0  0  0  0  0  0  0  0  0  0
   31.4917   66.0584    9.0611 C   0  0  0  0  0  0  0  0  0  0  0  0
   30.3287   65.8244    9.8918 N   0  0  0  0  0  0  0  0  0  0  0  0
   29.7291   66.2066    7.8142 N   0  0  0  0  0  0  0  0  0  0  0  0
   30.3893   65.5717   11.3280 C   0  0  0  0  0  0  0  0  0  0  0  0
   29.2515   65.8039    9.1655 C   0  0  0  0  0  0  0  0  0  0  0  0
   28.7317   66.3455    6.7440 C   0  0  0  0  0  0  0  0  0  0  0  0
   29.0491   64.9866   11.8094 C   0  0  2  0  0  0  0  0  0  0  0  0
   27.7854   67.4329    7.0234 C   0  0  0  0  0  0  0  0  0  0  0  0
   27.9674   65.2537   10.9611 C   0  0  2  0  0  0  0  0  0  0  0  0
   26.6947   64.8177   11.5171 C   0  0  0  0  0  0  0  0  0  0  0  0
   28.9044   64.3604   13.0327 C   0  0  0  0  0  0  0  0  0  0  0  0
   27.9763   65.5189    9.5423 C   0  0  0  0  0  0  0  0  0  0  0  0
   27.7025   63.9736   13.4594 C   0  0  1  0  0  0  0  0  0  0  0  0
   26.5523   64.1280   12.7184 C   0  0  0  0  0  0  0  0  0  0  0  0
   27.5226   63.1981   14.6074 O   0  0  0  0  0  0  0  0  0  0  0  0
  1  2  2  0
  2  3  1  0
  3  4  1  0
  2  5  1  0
  4  6  1  0
  5  7  1  0
  6  7  1  0
  7  8  1  0
  5  9  1  1
  8 10  1  0
  8 11  1  0
  9 11  1  0
  9 12  1  0
 13 10  1  1
 12 14  1  0
 13 15  1  0
 15 16  1  6
 13 17  1  0
 11 18  1  0
 15 18  1  0
 17 19  1  0
 16 20  1  0
 19 20  1  0
 19 21  1  6
M  END
$$$$
107
     RDKit          3D

 21 23  0  0  0  0  0  0  0  0999 V2000
   33.6183   66.0059    7.4162 O   0  0  0  0  0  0  0  0  0  0  0  0
   32.6565   66.5888    8.1501 C   0  0  2  0  0  0  0  0  0  0  0  0
   32.4345   65.9900    9.3922 C   0  0  0  0  0  0  0  0  0  0  0  0
   31.0784   66.0742    9.8154 N   0  0  0  0  0  0  0  0  0  0  0  0
   31.3929   66.6631    7.3121 C   0  0  1  0  0  0  0  0  0  0  0  0
   30.5154   65.2187   10.6650 C   0  0  0  0  0  0  0  0  0  0  0  0
   29.0765   65.4177   11.0326 C   0  0  1  0  0  0  0  0  0  0  0  0
   30.3837   66.5166    8.5138 C   0  0  2  0  0  0  0  0  0  0  0  0
   31.0187   67.1888    6.2300 C   0  0  0  0  0  0  0  0  0  0  0  0
   28.6472   65.0140   12.1774 C   0  0  2  0  0  0  0  0  0  0  0  0
   28.9900   66.9696   10.6891 C   0  0  2  0  0  0  0  0  0  0  0  0
   27.5420   67.3829   10.9082 O   0  0  0  0  0  0  0  0  0  0  0  0
   28.9941   66.9295    9.0747 C   0  0  0  0  0  0  0  0  0  0  0  0
   29.9269   67.0472    5.7491 O   0  0  0  0  0  0  0  0  0  0  0  0
   27.9761   66.7902    8.1616 N   0  0  0  0  0  0  0  0  0  0  0  0
   27.4580   64.3709   12.2045 O   0  0  0  0  0  0  0  0  0  0  0  0
   27.0583   63.6932   13.3991 C   0  0  0  0  0  0  0  0  0  0  0  0
   27.4369   64.3324   14.4815 C   0  0  0  0  0  0  0  0  0  0  0  0
   27.0624   65.7964    7.9626 C   0  0  0  0  0  0  0  0  0  0  0  0
   28.8562   64.8916   14.2896 N   0  0  0  0  0  0  0  0  0  0  0  0
   29.0674   65.6085   13.3816 C   0  0  0  0  0  0  0  0  0  0  0  0
  2  1  1  6
  2  3  1  0
  3  4  1  0
  2  5  1  0
  4  6  1  0
  7  6  1  1
  8  4  1  1
  5  8  1  0
  5  9  1  1
  7 10  1  0
  7 11  1  0
 11 12  1  6
  8 13  1  0
 11 13  1  0
  9 14  1  0
 13 15  2  3
 10 16  1  0
 16 17  1  0
 17 18  1  0
 15 19  1  0
 18 20  1  0
 10 21  1  1
 20 21  1  0
M  END
$$$$
108
     RDKit          3D

 21 22  0  0  0  0  0  0  0  0999 V2000
   31.8855   67.5502    6.0072 O   0  0  0  0  0  0  0  0  0  0  0  0
   31.4276   66.6777    6.9140 C   0  0  2  0  0  0  0  0  0  0  0  0
   30.0670   66.5588    7.1794 C   0  0  1  0  0  0  0  0  0  0  0  0
   32.4118   66.3903    7.9567 C   0  0  1  0  0  0  0  0  0  0  0  0
   29.0800   66.8566    6.1230 C   0  0  0  0  0  0  0  0  0  0  0  0
   33.7636   66.5418    7.6965 O   0  0  0  0  0  0  0  0  0  0  0  0
   29.7809   65.4999    8.1565 O   0  0  0  0  0  0  0  0  0  0  0  0
   30.2030   65.6824    9.4058 C   0  0  1  0  0  0  0  0  0  0  0  0
   29.9010   64.8541   10.2866 N   0  0  0  0  0  0  0  0  0  0  0  0
   27.6996   66.4174    6.6816 O   0  0  0  0  0  0  0  0  0  0  0  0
   29.6568   65.3166   11.5793 C   0  0  2  0  0  0  0  0  0  0  0  0
   31.6643   66.2917    9.4453 C   0  0  1  0  0  0  0  0  0  0  0  0
   32.3652   65.5311   10.3574 O   0  0  0  0  0  0  0  0  0  0  0  0
   29.1796   64.2539   12.5080 C   0  0  2  0  0  0  0  0  0  0  0  0
   28.5243   66.3575   11.5393 O   0  0  0  0  0  0  0  0  0  0  0  0
   27.7956   64.3232   12.7100 C   0  0  1  0  0  0  0  0  0  0  0  0
   27.4096   65.7417   12.2867 C   0  0  1  0  0  0  0  0  0  0  0  0
   27.0414   66.6933   13.2818 C   0  0  0  0  0  0  0  0  0  0  0  0
   26.1186   67.6414   12.9334 O   0  0  0  0  0  0  0  0  0  0  0  0
   27.1889   63.3102   11.7781 O   0  0  0  0  0  0  0  0  0  0  0  0
   29.7359   64.0471   13.7722 O   0  0  0  0  0  0  0  0  0  0  0  0
  2  1  1  1
  2  3  1  0
  2  4  1  0
  3  5  1  6
  4  6  1  1
  3  7  1  0
  7  8  1  0
  8  9  1  1
  5 10  1  0
 11  9  1  6
  4 12  1  0
  8 12  1  0
 12 13  1  1
 11 14  1  0
 11 15  1  0
 14 16  1  0
 15 17  1  0
 16 17  1  0
 17 18  1  1
 18 19  1  0
 16 20  1  6
 14 21  1  1
M  END
$$$$
109
     RDKit          3D

 21 24  0  0  0  0  0  0  0  0999 V2000
   33.3646   65.8378    7.7727 O   0  0  0  0  0  0  0  0  0  0  0  0
   32.5367   66.5081    8.2714 C   0  0  0  0  0  0  0  0  0  0  0  0
   32.4526   66.6938    9.5835 N   0  0  0  0  0  0  0  0  0  0  0  0
   31.2106   66.4799   10.2349 C   0  0  2  0  0  0  0  0  0  0  0  0
   31.6502   67.2941    7.4020 C   0  0  1  0  0  0  0  0  0  0  0  0
   31.9278   67.1461    5.9784 O   0  0  0  0  0  0  0  0  0  0  0  0
   30.0518   66.7621    9.3181 C   0  0  2  0  0  0  0  0  0  0  0  0
   28.8026   66.1946    9.8166 C   0  0  2  0  0  0  0  0  0  0  0  0
   30.2610   66.7565    7.7686 C   0  0  0  0  0  0  0  0  0  0  0  0
   29.2412   66.5980    6.9251 C   0  0  0  0  0  0  0  0  0  0  0  0
   27.9829   66.3901    7.4537 C   0  0  0  0  0  0  0  0  0  0  0  0
   27.7439   66.1033    8.8544 C   0  0  2  0  0  0  0  0  0  0  0  0
   26.4120   65.7950    9.2518 C   0  0  0  0  0  0  0  0  0  0  0  0
   28.5014   65.8741   11.1504 C   0  0  2  0  0  0  0  0  0  0  0  0
   29.6750   65.7065   12.1445 N   0  0  0  0  0  0  0  0  0  0  0  0
   26.2464   64.6252   10.0534 C   0  0  0  0  0  0  0  0  0  0  0  0
   27.3543   64.9117   11.3655 C   0  0  0  0  0  0  0  0  0  0  0  0
   30.7729   66.2593   11.4399 C   0  0  0  0  0  0  0  0  0  0  0  0
   27.1421   64.2328   12.6291 C   0  0  0  0  0  0  0  0  0  0  0  0
   26.1204   64.5212   13.3121 C   0  0  0  0  0  0  0  0  0  0  0  0
   28.3086   63.2523   13.1217 C   0  0  0  0  0  0  0  0  0  0  0  0
  1  2  2  0
  2  3  1  0
  3  4  1  0
  2  5  1  0
  5  6  1  6
  4  7  1  0
  7  8  1  0
  5  9  1  0
  7  9  1  6
  9 10  2  0
 10 11  1  0
  8 12  1  1
 12 11  1  1
 12 13  1  0
  8 14  1  0
 14 15  1  6
 13 16  1  0
 14 17  1  0
 16 17  1  0
  4 18  1  1
 15 18  1  0
 17 19  1  0
 19 20  2  0
 19 21  1  0
M  END
$$$$
11
     RDKit          3D

 13 14  0  0  0  0  0  0  0  0999 V2000
   33.2226   65.9695    7.0911 O   0  0  0  0  0  0  0  0  0  0  0  0
   32.4425   66.6805    7.7998 C   0  0  1  0  0  0  0  0  0  0  0  0
   31.1929   66.7730    7.2327 C   0  0  2  0  0  0  0  0  0  0  0  0
   30.0335   66.5368    8.0280 C   0  0  1  0  0  0  0  0  0  0  0  0
   32.1977   66.0615    9.1455 C   0  0  1  0  0  0  0  0  0  0  0  0
   30.8402   66.1322    6.0174 O   0  0  0  0  0  0  0  0  0  0  0  0
   28.8088   66.2176    7.7753 C   0  0  0  0  0  0  0  0  0  0  0  0
   33.1075   66.0365   10.0320 O   0  0  0  0  0  0  0  0  0  0  0  0
   27.8034   65.9216    8.6943 O   0  0  0  0  0  0  0  0  0  0  0  0
   30.6475   65.7022    9.2111 C   0  0  1  0  0  0  0  0  0  0  0  0
   28.5177   66.0499    6.4614 C   0  0  0  0  0  0  0  0  0  0  0  0
   29.4559   66.4740    5.5570 C   0  0  0  0  0  0  0  0  0  0  0  0
   30.1945   65.7837   10.5370 O   0  0  0  0  0  0  0  0  0  0  0  0
  2  1  1  6
  2  3  1  0
  3  4  1  0
  2  5  1  0
  3  6  1  6
  4  7  1  6
  5  8  1  1
  7  9  1  0
  4 10  1  0
  5 10  1  0
  7 11  2  0
  6 12  1  0
 11 12  1  0
 10 13  1  1
M  END
$$$$
110
     RDKit          3D

 21 23  0  0  0  0  0  0  0  0999 V2000
   33.4806   66.0184    6.9440 O   0  0  0  0  0  0  0  0  0  0  0  0
   32.4302   66.8734    7.2195 C   0  0  1  0  0  0  0  0  0  0  0  0
   31.7933   67.3288    6.1072 C   0  0  0  0  0  0  0  0  0  0  0  0
   30.2882   67.0145    6.3196 C   0  0  0  0  0  0  0  0  0  0  0  0
   31.6157   66.2626    8.3424 C   0  0  2  0  0  0  0  0  0  0  0  0
   30.2260   66.4056    7.7430 C   0  0  2  0  0  0  0  0  0  0  0  0
   31.7804   66.7444    9.7064 C   0  0  0  0  0  0  0  0  0  0  0  0
   32.9622   65.9377   10.3306 N   0  0  0  0  0  0  0  0  0  0  0  0
   29.1621   67.0949    5.6653 C   0  0  0  0  0  0  0  0  0  0  0  0
   29.1150   65.5191    7.8790 C   0  0  1  0  0  0  0  0  0  0  0  0
   28.6455   65.2737    9.2453 O   0  0  0  0  0  0  0  0  0  0  0  0
   29.1524   64.9692   10.2413 C   0  0  0  0  0  0  0  0  0  0  0  0
   28.1193   66.5835    6.5362 C   0  0  0  0  0  0  0  0  0  0  0  0
   27.9884   65.6243    7.3601 C   0  0  0  0  0  0  0  0  0  0  0  0
   28.3666   64.7103   11.4050 C   0  0  0  0  0  0  0  0  0  0  0  0
   27.2084   64.2094   11.1918 C   0  0  0  0  0  0  0  0  0  0  0  0
   28.9861   64.8986   12.6795 C   0  0  0  0  0  0  0  0  0  0  0  0
   28.2140   64.4986   13.7742 C   0  0  0  0  0  0  0  0  0  0  0  0
   30.4489   64.9748   10.4744 O   0  0  0  0  0  0  0  0  0  0  0  0
   26.8958   64.0080   13.6353 C   0  0  0  0  0  0  0  0  0  0  0  0
   26.3602   63.8505   12.2945 C   0  0  0  0  0  0  0  0  0  0  0  0
  2  1  1  6
  2  3  1  0
  3  4  1  0
  2  5  1  0
  6  4  1  6
  5  6  1  0
  5  7  1  1
  7  8  1  0
  4  9  1  0
  6 10  1  0
 10 11  1  1
 11 12  1  0
  9 13  1  0
 10 14  1  0
 13 14  1  0
 12 15  1  0
 15 16  1  0
 15 17  1  0
 17 18  1  0
 12 19  2  0
 18 20  1  0
 16 21  1  0
 20 21  1  0
M  END
$$$$
111
     RDKit          3D

 21 24  0  0  0  0  0  0  0  0999 V2000
   33.0621   66.2496    6.5022 O   0  0  0  0  0  0  0  0  0  0  0  0
   32.3958   66.7976    7.4770 C   0  0  1  0  0  0  0  0  0  0  0  0
   31.0372   66.5552    7.3984 C   0  0  1  0  0  0  0  0  0  0  0  0
   30.4519   66.3108    8.8292 C   0  0  1  0  0  0  0  0  0  0  0  0
   33.1128   67.0050    8.6737 C   0  0  0  0  0  0  0  0  0  0  0  0
   28.9850   65.9351    8.8855 C   0  0  2  0  0  0  0  0  0  0  0  0
   28.2379   66.4087    7.7333 C   0  0  0  0  0  0  0  0  0  0  0  0
   30.1696   66.6237    6.3420 C   0  0  0  0  0  0  0  0  0  0  0  0
   28.7685   66.4473    6.4229 C   0  0  0  0  0  0  0  0  0  0  0  0
   28.5353   66.2768   10.2772 C   0  0  0  0  0  0  0  0  0  0  0  0
   29.3842   65.8185   11.2559 C   0  0  1  0  0  0  0  0  0  0  0  0
   32.8677   65.7187    9.3578 N   0  0  0  0  0  0  0  0  0  0  0  0
   30.6891   65.6215   10.9388 N   0  0  0  0  0  0  0  0  0  0  0  0
   31.2423   65.6479    9.7219 C   0  0  0  0  0  0  0  0  0  0  0  0
   28.9792   65.6893   12.6156 C   0  0  1  0  0  0  0  0  0  0  0  0
   28.3965   64.4959   12.9868 C   0  0  0  0  0  0  0  0  0  0  0  0
   29.2961   66.6801   13.5937 C   0  0  0  0  0  0  0  0  0  0  0  0
   28.8544   66.4764   14.8797 C   0  0  1  0  0  0  0  0  0  0  0  0
   29.0399   67.5346   15.9172 C   0  0  0  0  0  0  0  0  0  0  0  0
   28.1403   65.3364   15.3059 C   0  0  0  0  0  0  0  0  0  0  0  0
   27.8791   64.3714   14.3548 C   0  0  0  0  0  0  0  0  0  0  0  0
  2  1  1  1
  2  3  1  0
  3  4  1  0
  2  5  1  0
  4  6  1  0
  6  7  1  6
  3  8  1  1
  7  9  1  0
  8  9  1  0
  6 10  1  0
 11 10  1  1
  5 12  1  0
 11 13  1  0
  4 14  1  6
 12 14  1  0
 13 14  2  0
 11 15  1  0
 15 16  1  1
 15 17  1  0
 17 18  1  0
 18 19  1  6
 18 20  1  0
 16 21  1  0
 20 21  1  0
M  END
$$$$
112
     RDKit          3D

 21 23  0  0  0  0  0  0  0  0999 V2000
   33.6183   66.0059    7.4162 O   0  0  0  0  0  0  0  0  0  0  0  0
   32.6565   66.5888    8.1501 C   0  0  1  0  0  0  0  0  0  0  0  0
   31.4523   66.7387    7.3552 C   0  0  0  0  0  0  0  0  0  0  0  0
   30.2234   66.5194    7.9191 C   0  0  0  0  0  0  0  0  0  0  0  0
   31.5122   67.1165    5.9986 O   0  0  0  0  0  0  0  0  0  0  0  0
   32.6060   66.2478    9.4978 C   0  0  0  0  0  0  0  0  0  0  0  0
   31.2843   66.0254    9.9935 N   0  0  0  0  0  0  0  0  0  0  0  0
   30.1287   66.1555    9.2927 C   0  0  0  0  0  0  0  0  0  0  0  0
   28.9133   65.9053   10.1384 C   0  0  2  0  0  0  0  0  0  0  0  0
   28.9753   65.1804   11.1900 C   0  0  0  0  0  0  0  0  0  0  0  0
   28.8035   66.5990    7.4651 C   0  0  0  0  0  0  0  0  0  0  0  0
   27.6804   66.3294    8.0883 C   0  0  0  0  0  0  0  0  0  0  0  0
   27.7137   65.5856    9.3515 C   0  0  2  0  0  0  0  0  0  0  0  0
   26.4123   65.6913   10.0435 C   0  0  0  0  0  0  0  0  0  0  0  0
   26.5337   64.9250   11.3862 C   0  0  2  0  0  0  0  0  0  0  0  0
   29.9054   65.2687   12.2148 O   0  0  0  0  0  0  0  0  0  0  0  0
   27.8055   65.0139   12.1178 N   0  0  0  0  0  0  0  0  0  0  0  0
   26.0830   63.4901   11.1280 C   0  0  0  0  0  0  0  0  0  0  0  0
   27.8902   64.1086   13.2641 C   0  0  0  0  0  0  0  0  0  0  0  0
   28.5267   64.5710   14.3802 O   0  0  0  0  0  0  0  0  0  0  0  0
   27.3197   62.9008   13.3257 O   0  0  0  0  0  0  0  0  0  0  0  0
  2  1  1  6
  2  3  1  0
  3  4  1  0
  3  5  1  0
  2  6  1  0
  6  7  1  0
  4  8  1  0
  7  8  1  0
  9  8  1  6
  9 10  1  0
  4 11  1  0
 11 12  1  0
  9 13  1  0
 13 12  1  6
 13 14  1  0
 14 15  1  0
 10 16  2  0
 10 17  1  0
 15 17  1  0
 15 18  1  6
 17 19  1  0
 19 20  1  0
 19 21  2  0
M  END
$$$$
113
     RDKit          3D

 21 23  0  0  0  0  0  0  0  0999 V2000
   32.3157   67.4065    6.0998 O   0  0  0  0  0  0  0  0  0  0  0  0
   32.4451   66.7940    7.2605 C   0  0  0  0  0  0  0  0  0  0  0  0
   31.3248   66.5025    8.0277 C   0  0  2  0  0  0  0  0  0  0  0  0
   31.4567   66.1752    9.3383 C   0  0  0  0  0  0  0  0  0  0  0  0
   33.7369   66.4078    7.4964 N   0  0  0  0  0  0  0  0  0  0  0  0
   30.3442   65.6111    7.4060 C   0  0  2  0  0  0  0  0  0  0  0  0
   29.5081   66.2988    6.3469 C   0  0  0  0  0  0  0  0  0  0  0  0
   28.3037   66.4804    6.9116 C   0  0  0  0  0  0  0  0  0  0  0  0
   28.0130   66.1061    8.2053 C   0  0  2  0  0  0  0  0  0  0  0  0
   29.2192   65.3446    8.4267 N   0  0  0  0  0  0  0  0  0  0  0  0
   30.4308   65.9052   10.2181 N   0  0  0  0  0  0  0  0  0  0  0  0
   29.3183   65.5309    9.8709 C   0  0  0  0  0  0  0  0  0  0  0  0
   32.7462   66.1346    9.8773 O   0  0  0  0  0  0  0  0  0  0  0  0
   26.7942   65.4151    8.5281 C   0  0  0  0  0  0  0  0  0  0  0  0
   25.6815   66.1091    8.6345 C   0  0  0  0  0  0  0  0  0  0  0  0
   28.4873   65.2485   10.7589 O   0  0  0  0  0  0  0  0  0  0  0  0
   24.4449   65.6258    9.2304 C   0  0  0  0  0  0  0  0  0  0  0  0
   24.4870   65.4590   10.4760 C   0  0  0  0  0  0  0  0  0  0  0  0
   23.3608   66.4841    8.9112 C   0  0  0  0  0  0  0  0  0  0  0  0
   23.1419   67.2652    9.9774 C   0  0  0  0  0  0  0  0  0  0  0  0
   23.5534   66.4043   11.1419 C   0  0  0  0  0  0  0  0  0  0  0  0
  1  2  2  0
  3  2  1  6
  3  4  1  0
  2  5  1  0
  3  6  1  0
  6  7  1  6
  7  8  1  0
  9  8  1  6
  6 10  1  0
  9 10  1  0
  4 11  1  0
 10 12  1  0
 11 12  1  0
  4 13  2  0
  9 14  1  0
 14 15  2  3
 12 16  2  0
 15 17  1  0
 17 18  1  0
 17 19  1  0
 19 20  1  0
 18 21  1  0
 20 21  1  0
M  END
$$$$
114
     RDKit          3D

 21 23  0  0  0  0  0  0  0  0999 V2000
   32.2259   67.2337    6.6502 C   0  0  2  0  0  0  0  0  0  0  0  0
   32.9913   66.6732    7.6368 C   0  0  0  0  0  0  0  0  0  0  0  0
   30.8140   66.9151    6.8802 C   0  0  1  0  0  0  0  0  0  0  0  0
   29.8571   67.0169    5.9041 O   0  0  0  0  0  0  0  0  0  0  0  0
   32.4449   66.4024    8.9047 C   0  0  2  0  0  0  0  0  0  0  0  0
   33.3360   65.8501    9.9550 O   0  0  0  0  0  0  0  0  0  0  0  0
   30.5818   66.3457    8.2255 C   0  0  2  0  0  0  0  0  0  0  0  0
   32.8109   66.8699    5.4713 O   0  0  0  0  0  0  0  0  0  0  0  0
   31.2455   65.6244    9.0053 C   0  0  2  0  0  0  0  0  0  0  0  0
   30.8727   65.1372   10.2290 N   0  0  0  0  0  0  0  0  0  0  0  0
   29.4867   65.1540   10.6152 C   0  0  0  0  0  0  0  0  0  0  0  0
   34.2395   66.3992    7.4706 O   0  0  0  0  0  0  0  0  0  0  0  0
   29.1304   64.7473   11.8065 C   0  0  0  0  0  0  0  0  0  0  0  0
   29.0837   65.6536    8.2747 O   0  0  0  0  0  0  0  0  0  0  0  0
   28.6116   65.6119    9.5979 C   0  0  1  0  0  0  0  0  0  0  0  0
   27.8239   64.5857   12.1453 C   0  0  1  0  0  0  0  0  0  0  0  0
   27.3132   65.1591    9.7243 C   0  0  0  0  0  0  0  0  0  0  0  0
   26.8547   64.8657   11.0360 C   0  0  0  0  0  0  0  0  0  0  0  0
   27.2333   64.0729   13.5933 C   0  0  0  0  0  0  0  0  0  0  0  0
   28.2748   63.3696   14.2207 O   0  0  0  0  0  0  0  0  0  0  0  0
   26.0773   63.9568   13.5007 O   0  0  0  0  0  0  0  0  0  0  0  0
  1  2  1  0
  1  3  1  0
  3  4  1  6
  2  5  1  0
  5  6  1  1
  3  7  1  0
  1  8  1  6
  5  9  1  0
  7  9  1  0
  9 10  1  1
 10 11  1  0
  2 12  1  0
 11 13  1  0
  7 14  1  6
 11 15  1  0
 14 15  1  0
 13 16  1  0
 15 17  1  6
 16 18  1  0
 17 18  1  0
 16 19  1  6
 19 20  1  0
 19 21  2  0
M  END
$$$$
115
     RDKit          3D

 21 25  0  0  0  0  0  0  0  0999 V2000
   33.6942   66.2004    7.3852 O   0  0  0  0  0  0  0  0  0  0  0  0
   32.5292   66.8086    7.4600 C   0  0  2  0  0  0  0  0  0  0  0  0
   31.6837   66.1778    8.4615 C   0  0  1  0  0  0  0  0  0  0  0  0
   31.7955   66.7485    6.1941 C   0  0  1  0  0  0  0  0  0  0  0  0
   32.2235   66.1947    9.7870 N   0  0  0  0  0  0  0  0  0  0  0  0
   30.3208   66.7341    8.4655 C   0  0  2  0  0  0  0  0  0  0  0  0
   30.3800   67.1925    6.3255 C   0  0  0  0  0  0  0  0  0  0  0  0
   31.6581   65.2672   10.6451 C   0  0  0  0  0  0  0  0  0  0  0  0
   29.5769   65.9736    9.6195 C   0  0  2  0  0  0  0  0  0  0  0  0
   28.2037   66.4897    9.7241 C   0  0  1  0  0  0  0  0  0  0  0  0
   30.2112   65.6531   10.8517 C   0  0  0  0  0  0  0  0  0  0  0  0
   29.3733   65.4199   11.9787 C   0  0  0  0  0  0  0  0  0  0  0  0
   29.8862   64.8335   13.1793 N   0  0  0  0  0  0  0  0  0  0  0  0
   28.9914   64.6042   14.1421 N   0  0  0  0  0  0  0  0  0  0  0  0
   29.6441   66.4164    7.2647 C   0  0  2  0  0  0  0  0  0  0  0  0
   32.5705   67.6823    5.2799 N   0  0  0  0  0  0  0  0  0  0  0  0
   27.7552   64.6952   13.7595 C   0  0  0  0  0  0  0  0  0  0  0  0
   28.1834   66.9368    7.2084 C   0  0  0  0  0  0  0  0  0  0  0  0
   27.4301   66.2622    8.3811 C   0  0  0  0  0  0  0  0  0  0  0  0
   27.9571   65.4279   12.2132 C   0  0  0  0  0  0  0  0  0  0  0  0
   27.2701   66.0942   10.9044 C   0  0  0  0  0  0  0  0  0  0  0  0
  2  1  1  6
  2  3  1  0
  2  4  1  0
  3  5  1  1
  3  6  1  0
  4  7  1  0
  5  8  1  0
  6  9  1  0
  9 10  1  0
  8 11  1  0
  9 11  1  1
 11 12  2  0
 12 13  1  0
 13 14  1  0
  6 15  1  6
 15  7  1  6
  4 16  1  6
 14 17  1  0
 15 18  1  0
 10 19  1  6
 18 19  1  0
 12 20  1  0
 17 20  1  0
 10 21  1  0
 20 21  2  0
M  END
$$$$
116
     RDKit          3D

 21 22  0  0  0  0  0  0  0  0999 V2000
   31.6879   67.5931    5.9647 O   0  0  0  0  0  0  0  0  0  0  0  0
   31.2485   66.7073    6.8918 C   0  0  1  0  0  0  0  0  0  0  0  0
   32.0991   66.5889    8.0526 C   0  0  1  0  0  0  0  0  0  0  0  0
   29.8929   67.1199    7.3875 C   0  0  1  0  0  0  0  0  0  0  0  0
   31.5978   66.1437    9.2723 C   0  0  2  0  0  0  0  0  0  0  0  0
   28.8690   67.0434    6.2441 O   0  0  0  0  0  0  0  0  0  0  0  0
   29.2916   66.6519    8.5966 C   0  0  1  0  0  0  0  0  0  0  0  0
   28.8989   65.4238    8.4003 O   0  0  0  0  0  0  0  0  0  0  0  0
   33.5615   66.8063    7.8753 N   0  0  0  0  0  0  0  0  0  0  0  0
   30.4938   66.5193    9.5800 C   0  0  1  0  0  0  0  0  0  0  0  0
   32.6661   66.2613   10.2919 O   0  0  0  0  0  0  0  0  0  0  0  0
   34.2944   65.6328    7.4213 O   0  0  0  0  0  0  0  0  0  0  0  0
   29.8950   65.8864   10.8177 O   0  0  0  0  0  0  0  0  0  0  0  0
   28.8720   66.2147   11.4651 C   0  0  0  0  0  0  0  0  0  0  0  0
   28.1226   65.4357   12.0523 C   0  0  2  0  0  0  0  0  0  0  0  0
   28.6633   64.7944   13.2123 C   0  0  2  0  0  0  0  0  0  0  0  0
   28.0570   63.6766   13.7023 C   0  0  0  0  0  0  0  0  0  0  0  0
   28.7588   65.4826   14.4284 N   0  0  0  0  0  0  0  0  0  0  0  0
   27.4618   62.6242   12.7576 O   0  0  0  0  0  0  0  0  0  0  0  0
   27.5093   64.4971   10.9761 O   0  0  0  0  0  0  0  0  0  0  0  0
   27.1486   63.2029   11.7016 C   0  0  0  0  0  0  0  0  0  0  0  0
  2  1  1  6
  2  3  1  0
  2  4  1  0
  3  5  1  0
  4  6  1  6
  4  7  1  0
  7  8  1  6
  3  9  1  6
  5 10  1  0
  7 10  1  0
  5 11  1  1
  9 12  1  0
 10 13  1  1
 13 14  1  0
 15 14  1  6
 15 16  1  0
 16 17  1  0
 16 18  1  1
 17 19  1  0
 15 20  1  0
 19 21  1  0
 20 21  1  0
M  END
$$$$
117
     RDKit          3D

 21 23  0  0  0  0  0  0  0  0999 V2000
   33.6942   66.2004    7.3852 O   0  0  0  0  0  0  0  0  0  0  0  0
   32.5292   66.8086    7.4600 C   0  0  1  0  0  0  0  0  0  0  0  0
   31.9308   67.1940    6.2806 C   0  0  0  0  0  0  0  0  0  0  0  0
   30.4318   67.0704    6.4081 C   0  0  0  0  0  0  0  0  0  0  0  0
   29.8039   66.6669    7.5054 C   0  0  0  0  0  0  0  0  0  0  0  0
   28.3139   66.6943    7.5470 C   0  0  0  0  0  0  0  0  0  0  0  0
   27.6180   66.5179    6.4892 O   0  0  0  0  0  0  0  0  0  0  0  0
   30.3940   66.2162    8.6810 C   0  0  2  0  0  0  0  0  0  0  0  0
   29.6409   65.8948    9.8223 C   0  0  1  0  0  0  0  0  0  0  0  0
   30.4779   65.5328   10.9355 N   0  0  0  0  0  0  0  0  0  0  0  0
   31.8752   66.3506    8.7436 C   0  0  1  0  0  0  0  0  0  0  0  0
   28.4139   66.0350    9.6849 C   0  0  1  0  0  0  0  0  0  0  0  0
   32.6317   66.0345    9.8033 O   0  0  0  0  0  0  0  0  0  0  0  0
   29.5931   64.7857   11.8948 C   0  0  0  0  0  0  0  0  0  0  0  0
   27.8238   66.3195    8.6326 N   0  0  0  0  0  0  0  0  0  0  0  0
   27.7180   65.3488   10.7440 C   0  0  2  0  0  0  0  0  0  0  0  0
   26.2557   65.4313   10.7390 O   0  0  0  0  0  0  0  0  0  0  0  0
   28.3453   64.8628   11.8300 C   0  0  1  0  0  0  0  0  0  0  0  0
   27.6411   64.2733   13.0990 C   0  0  0  0  0  0  0  0  0  0  0  0
   28.3175   63.6151   13.9482 N   0  0  0  0  0  0  0  0  0  0  0  0
   26.4693   64.1371   12.9631 O   0  0  0  0  0  0  0  0  0  0  0  0
  2  1  1  6
  2  3  1  0
  3  4  1  0
  4  5  1  0
  5  6  1  0
  6  7  2  0
  8  5  1  1
  8  9  1  0
  9 10  1  1
  2 11  1  0
  8 11  1  0
  9 12  1  0
 11 13  1  6
 10 14  1  0
  6 15  1  0
 12 15  1  6
 12 16  1  0
 16 17  1  1
 14 18  1  0
 16 18  1  0
 18 19  1  6
 19 20  1  0
 19 21  2  0
M  END
$$$$
118
     RDKit          3D

 21 23  0  0  0  0  0  0  0  0999 V2000
   33.6183   66.0059    7.4162 O   0  0  0  0  0  0  0  0  0  0  0  0
   32.6565   66.5888    8.1501 C   0  0  2  0  0  0  0  0  0  0  0  0
   32.4345   65.9900    9.3922 C   0  0  0  0  0  0  0  0  0  0  0  0
   31.0784   66.0742    9.8154 N   0  0  0  0  0  0  0  0  0  0  0  0
   31.3929   66.6631    7.3121 C   0  0  1  0  0  0  0  0  0  0  0  0
   30.5154   65.2187   10.6650 C   0  0  0  0  0  0  0  0  0  0  0  0
   29.0765   65.4177   11.0326 C   0  0  1  0  0  0  0  0  0  0  0  0
   30.3837   66.5166    8.5138 C   0  0  2  0  0  0  0  0  0  0  0  0
   31.0187   67.1888    6.2300 C   0  0  0  0  0  0  0  0  0  0  0  0
   28.6472   65.0140   12.1774 C   0  0  2  0  0  0  0  0  0  0  0  0
   28.9900   66.9696   10.6891 C   0  0  2  0  0  0  0  0  0  0  0  0
   27.5420   67.3829   10.9082 O   0  0  0  0  0  0  0  0  0  0  0  0
   28.9941   66.9295    9.0747 C   0  0  0  0  0  0  0  0  0  0  0  0
   29.9269   67.0472    5.7491 O   0  0  0  0  0  0  0  0  0  0  0  0
   27.9761   66.7902    8.1616 N   0  0  0  0  0  0  0  0  0  0  0  0
   27.4580   64.3709   12.2045 O   0  0  0  0  0  0  0  0  0  0  0  0
   27.0583   63.6932   13.3991 C   0  0  0  0  0  0  0  0  0  0  0  0
   27.4369   64.3324   14.4815 C   0  0  0  0  0  0  0  0  0  0  0  0
   27.0624   65.7964    7.9626 C   0  0  0  0  0  0  0  0  0  0  0  0
   28.8562   64.8916   14.2896 N   0  0  0  0  0  0  0  0  0  0  0  0
   29.2415   65.3801   13.3344 C   0  0  0  0  0  0  0  0  0  0  0  0
  2  1  1  6
  2  3  1  0
  3  4  1  0
  2  5  1  0
  4  6  1  0
  7  6  1  1
  8  4  1  1
  5  8  1  0
  5  9  1  1
  7 10  1  0
  7 11  1  0
 11 12  1  6
  8 13  1  0
 11 13  1  0
  9 14  1  0
 13 15  2  3
 10 16  1  1
 16 17  1  0
 17 18  1  0
 15 19  1  0
 18 20  1  0
 10 21  1  0
 20 21  2  0
M  END
$$$$
119
     RDKit          3D

 21 24  0  0  0  0  0  0  0  0999 V2000
   33.3646   65.8378    7.7727 O   0  0  0  0  0  0  0  0  0  0  0  0
   32.5367   66.5081    8.2714 C   0  0  0  0  0  0  0  0  0  0  0  0
   32.4526   66.6938    9.5835 N   0  0  0  0  0  0  0  0  0  0  0  0
   31.2106   66.4799   10.2349 C   0  0  2  0  0  0  0  0  0  0  0  0
   31.6502   67.2941    7.4020 C   0  0  1  0  0  0  0  0  0  0  0  0
   31.9278   67.1461    5.9784 O   0  0  0  0  0  0  0  0  0  0  0  0
   30.0518   66.7621    9.3181 C   0  0  2  0  0  0  0  0  0  0  0  0
   28.8026   66.1946    9.8166 C   0  0  2  0  0  0  0  0  0  0  0  0
   30.2610   66.7565    7.7686 C   0  0  0  0  0  0  0  0  0  0  0  0
   29.2412   66.5980    6.9251 C   0  0  0  0  0  0  0  0  0  0  0  0
   27.9829   66.3901    7.4537 C   0  0  0  0  0  0  0  0  0  0  0  0
   27.7439   66.1033    8.8544 C   0  0  2  0  0  0  0  0  0  0  0  0
   26.4120   65.7950    9.2518 C   0  0  0  0  0  0  0  0  0  0  0  0
   28.5014   65.8741   11.1504 C   0  0  2  0  0  0  0  0  0  0  0  0
   29.6750   65.7065   12.1445 N   0  0  0  0  0  0  0  0  0  0  0  0
   26.2464   64.6252   10.0534 C   0  0  0  0  0  0  0  0  0  0  0  0
   27.3543   64.9117   11.3655 C   0  0  0  0  0  0  0  0  0  0  0  0
   30.7729   66.2593   11.4399 C   0  0  0  0  0  0  0  0  0  0  0  0
   27.1421   64.2328   12.6291 C   0  0  0  0  0  0  0  0  0  0  0  0
   26.1204   64.5212   13.3121 C   0  0  0  0  0  0  0  0  0  0  0  0
   25.9967   63.7929   14.6675 N   0  0  0  0  0  0  0  0  0  0  0  0
  1  2  2  0
  2  3  1  0
  3  4  1  0
  2  5  1  0
  5  6  1  6
  4  7  1  0
  7  8  1  0
  5  9  1  0
  7  9  1  6
  9 10  2  0
 10 11  1  0
  8 12  1  1
 12 11  1  1
 12 13  1  0
  8 14  1  0
 14 15  1  6
 13 16  1  0
 14 17  1  0
 16 17  1  0
  4 18  1  1
 15 18  1  0
 17 19  1  0
 19 20  2  3
 20 21  1  0
M  END
$$$$
12
     RDKit          3D

 13 13  0  0  0  0  0  0  0  0999 V2000
   33.2226   65.9695    7.0911 O   0  0  0  0  0  0  0  0  0  0  0  0
   32.4425   66.6805    7.7998 C   0  0  1  0  0  0  0  0  0  0  0  0
   31.1929   66.7730    7.2327 C   0  0  2  0  0  0  0  0  0  0  0  0
   30.0335   66.5368    8.0280 C   0  0  0  0  0  0  0  0  0  0  0  0
   32.1977   66.0615    9.1455 C   0  0  1  0  0  0  0  0  0  0  0  0
   30.8402   66.1322    6.0174 O   0  0  0  0  0  0  0  0  0  0  0  0
   28.8088   66.2176    7.7753 C   0  0  0  0  0  0  0  0  0  0  0  0
   33.1075   66.0365   10.0320 O   0  0  0  0  0  0  0  0  0  0  0  0
   27.8034   65.9216    8.6943 O   0  0  0  0  0  0  0  0  0  0  0  0
   30.6475   65.7022    9.2111 C   0  0  1  0  0  0  0  0  0  0  0  0
   28.5177   66.0499    6.4614 C   0  0  0  0  0  0  0  0  0  0  0  0
   27.1627   65.8984    6.1395 O   0  0  0  0  0  0  0  0  0  0  0  0
   30.1547   65.2702   10.3120 O   0  0  0  0  0  0  0  0  0  0  0  0
  2  1  1  6
  2  3  1  0
  3  4  1  0
  2  5  1  0
  3  6  1  6
  4  7  1  0
  5  8  1  1
  7  9  1  0
  4 10  1  0
  5 10  1  0
  7 11  2  3
 11 12  1  0
 10 13  1  1
M  END
$$$$
13
     RDKit          3D

 14 15  0  0  0  0  0  0  0  0999 V2000
   32.1120   67.3066    6.2523 N   0  0  0  0  0  0  0  0  0  0  0  0
   30.8302   66.8634    6.4369 C   0  0  0  0  0  0  0  0  0  0  0  0
   29.9162   66.9303    5.6223 O   0  0  0  0  0  0  0  0  0  0  0  0
   30.6815   66.1624    7.6972 C   0  0  2  0  0  0  0  0  0  0  0  0
   33.0418   66.8904    7.2327 C   0  0  1  0  0  0  0  0  0  0  0  0
   32.0695   66.3531    8.4197 C   0  0  2  0  0  0  0  0  0  0  0  0
   30.0971   64.9884    7.5486 O   0  0  0  0  0  0  0  0  0  0  0  0
   32.3410   65.9487    9.6817 C   0  0  2  0  0  0  0  0  0  0  0  0
   34.0781   66.1719    6.8008 O   0  0  0  0  0  0  0  0  0  0  0  0
   31.4617   66.1906   10.5584 C   0  0  2  0  0  0  0  0  0  0  0  0
   33.6437   65.6711    9.9203 O   0  0  0  0  0  0  0  0  0  0  0  0
   31.7251   65.9563   11.8674 O   0  0  0  0  0  0  0  0  0  0  0  0
   30.1266   66.3177   10.0880 C   0  0  0  0  0  0  0  0  0  0  0  0
   29.6581   66.6193    8.7568 C   0  0  0  0  0  0  0  0  0  0  0  0
  1  2  1  0
  2  3  2  0
  2  4  1  0
  1  5  1  0
  4  6  1  0
  6  5  1  6
  4  7  1  6
  6  8  1  0
  5  9  1  6
  8 10  1  0
  8 11  1  1
 10 12  1  1
 10 13  1  0
  4 14  1  0
 13 14  2  0
M  END
$$$$
14
     RDKit          3D

 14 15  0  0  0  0  0  0  0  0999 V2000
   33.6942   66.2004    7.3852 O   0  0  0  0  0  0  0  0  0  0  0  0
   32.5292   66.8086    7.4600 C   0  0  2  0  0  0  0  0  0  0  0  0
   31.6837   66.1778    8.4615 C   0  0  1  0  0  0  0  0  0  0  0  0
   31.7955   66.7485    6.1941 C   0  0  0  0  0  0  0  0  0  0  0  0
   32.2235   66.1947    9.7870 N   0  0  0  0  0  0  0  0  0  0  0  0
   30.3208   66.7341    8.4655 C   0  0  1  0  0  0  0  0  0  0  0  0
   30.3800   67.1925    6.3255 N   0  0  0  0  0  0  0  0  0  0  0  0
   29.6346   66.4547    7.1916 C   0  0  2  0  0  0  0  0  0  0  0  0
   29.5258   65.9124    9.5844 C   0  0  0  0  0  0  0  0  0  0  0  0
   28.2504   66.4017    9.7391 O   0  0  0  0  0  0  0  0  0  0  0  0
   30.0821   65.4616   10.6896 N   0  0  0  0  0  0  0  0  0  0  0  0
   28.2133   67.1138    7.1679 C   0  0  0  0  0  0  0  0  0  0  0  0
   27.4086   65.4668    9.2629 C   0  0  0  0  0  0  0  0  0  0  0  0
   26.8681   66.1394    7.8757 C   0  0  0  0  0  0  0  0  0  0  0  0
  2  1  1  6
  2  3  1  0
  2  4  1  0
  3  5  1  1
  3  6  1  0
  4  7  1  0
  6  8  1  0
  7  8  1  0
  6  9  1  1
  9 10  1  0
  9 11  2  0
  8 12  1  1
 10 13  1  0
 12 14  1  0
 13 14  1  0
M  END
$$$$
15
     RDKit          3D

 14 14  0  0  0  0  0  0  0  0999 V2000
   33.6942   66.2004    7.3852 O   0  0  0  0  0  0  0  0  0  0  0  0
   32.6531   66.5545    8.1435 C   0  0  1  0  0  0  0  0  0  0  0  0
   31.4658   66.7163    7.3734 C   0  0  2  0  0  0  0  0  0  0  0  0
   32.4363   65.4957    9.1676 C   0  0  1  0  0  0  0  0  0  0  0  0
   33.2750   65.5487   10.2386 O   0  0  0  0  0  0  0  0  0  0  0  0
   30.9384   65.9100    9.6349 C   0  0  1  0  0  0  0  0  0  0  0  0
   30.3327   66.3520    8.2961 C   0  0  0  0  0  0  0  0  0  0  0  0
   28.9001   66.5793    8.1046 C   0  0  0  0  0  0  0  0  0  0  0  0
   27.9028   66.1895    9.0193 C   0  0  0  0  0  0  0  0  0  0  0  0
   30.1251   64.7894   10.1116 O   0  0  0  0  0  0  0  0  0  0  0  0
   31.5229   65.9447    6.1499 O   0  0  0  0  0  0  0  0  0  0  0  0
   26.6289   66.0239    8.4386 C   0  0  0  0  0  0  0  0  0  0  0  0
   26.4751   64.9142    7.6869 O   0  0  0  0  0  0  0  0  0  0  0  0
   25.7939   67.0375    8.2294 O   0  0  0  0  0  0  0  0  0  0  0  0
  2  1  1  6
  2  3  1  0
  2  4  1  0
  4  5  1  1
  4  6  1  0
  3  7  1  0
  6  7  1  0
  7  8  2  3
  8  9  1  0
  6 10  1  6
  3 11  1  6
  9 12  1  0
 12 13  1  0
 12 14  2  0
M  END
$$$$
16
     RDKit          3D

 14 15  0  0  0  0  0  0  0  0999 V2000
   25.7378   65.3272    7.6438 C   0  0  0  0  0  0  0  0  0  0  0  0
   26.7717   66.1068    8.1076 C   0  0  0  0  0  0  0  0  0  0  0  0
   25.0271   64.6489    8.3685 C   0  0  1  0  0  0  0  0  0  0  0  0
   27.1466   65.9761    9.4486 C   0  0  2  0  0  0  0  0  0  0  0  0
   25.1735   64.5539    9.7299 C   0  0  0  0  0  0  0  0  0  0  0  0
   23.9063   63.9496    7.7321 O   0  0  0  0  0  0  0  0  0  0  0  0
   26.2405   65.2464   10.2777 C   0  0  1  0  0  0  0  0  0  0  0  0
   26.6102   65.0835   11.7119 C   0  0  0  0  0  0  0  0  0  0  0  0
   28.2966   66.8055   10.0423 C   0  0  0  0  0  0  0  0  0  0  0  0
   28.4538   66.7492   11.3594 C   0  0  0  0  0  0  0  0  0  0  0  0
   27.6651   65.9462   12.2128 C   0  0  0  0  0  0  0  0  0  0  0  0
   27.8798   65.9997   13.8623 C   0  0  0  0  0  0  0  0  0  0  0  0
   28.9569   65.1716   14.1461 N   0  0  0  0  0  0  0  0  0  0  0  0
   28.8756   63.8857   13.5611 C   0  0  0  0  0  0  0  0  0  0  0  0
  1  2  1  0
  1  3  1  0
  4  2  1  1
  3  5  1  0
  3  6  1  1
  4  7  1  0
  7  5  1  6
  7  8  1  0
  4  9  1  0
  9 10  1  0
  8 11  1  0
 10 11  1  0
 11 12  1  0
 12 13  1  0
 13 14  1  0
M  END
$$$$
17
     RDKit          3D

 14 14  0  0  0  0  0  0  0  0999 V2000
   32.1120   67.3066    6.2523 C   0  0  0  0  0  0  0  0  0  0  0  0
   32.8809   66.7380    7.2754 C   0  0  0  0  0  0  0  0  0  0  0  0
   30.8015   66.7076    6.5850 C   0  0  0  0  0  0  0  0  0  0  0  0
   32.4066   66.7532    8.5759 C   0  0  1  0  0  0  0  0  0  0  0  0
   31.1460   66.1696    8.7594 C   0  0  1  0  0  0  0  0  0  0  0  0
   30.1748   66.7285    7.7803 C   0  0  2  0  0  0  0  0  0  0  0  0
   28.8135   66.8741    8.0544 N   0  0  0  0  0  0  0  0  0  0  0  0
   27.8899   66.0596    7.7938 C   0  0  0  0  0  0  0  0  0  0  0  0
   34.1016   66.3735    7.0296 O   0  0  0  0  0  0  0  0  0  0  0  0
   33.4051   66.3474    9.6700 C   0  0  0  0  0  0  0  0  0  0  0  0
   32.6678   65.5945   10.6958 N   0  0  0  0  0  0  0  0  0  0  0  0
   30.8257   64.8806    9.2525 O   0  0  0  0  0  0  0  0  0  0  0  0
   28.1051   64.9025    7.3175 O   0  0  0  0  0  0  0  0  0  0  0  0
   26.5219   66.3124    8.0899 C   0  0  0  0  0  0  0  0  0  0  0  0
  1  2  1  0
  1  3  1  0
  2  4  1  0
  4  5  1  0
  3  6  1  0
  5  6  1  0
  6  7  1  6
  7  8  1  0
  2  9  2  0
  4 10  1  1
 10 11  1  0
  5 12  1  6
  8 13  2  0
  8 14  1  0
M  END
$$$$
18
     RDKit          3D

 15 15  0  0  0  0  0  0  0  0999 V2000
   32.1120   67.3066    6.2523 N   0  0  0  0  0  0  0  0  0  0  0  0
   30.8302   66.8634    6.4369 C   0  0  0  0  0  0  0  0  0  0  0  0
   29.9162   66.9303    5.6223 O   0  0  0  0  0  0  0  0  0  0  0  0
   30.6815   66.1624    7.6972 C   0  0  2  0  0  0  0  0  0  0  0  0
   33.0418   66.8904    7.2327 C   0  0  1  0  0  0  0  0  0  0  0  0
   29.6513   66.5001    8.6074 C   0  0  0  0  0  0  0  0  0  0  0  0
   32.0275   66.5554    8.5281 C   0  0  2  0  0  0  0  0  0  0  0  0
   33.8388   65.9563    6.8713 O   0  0  0  0  0  0  0  0  0  0  0  0
   28.3484   65.7684    8.2772 O   0  0  0  0  0  0  0  0  0  0  0  0
   27.3359   66.5764    7.6530 C   0  0  0  0  0  0  0  0  0  0  0  0
   26.1780   65.7759    7.3783 C   0  0  0  0  0  0  0  0  0  0  0  0
   26.2074   64.4237    7.7387 O   0  0  0  0  0  0  0  0  0  0  0  0
   32.1043   65.8273    9.7420 C   0  0  0  0  0  0  0  0  0  0  0  0
   33.2717   66.2110   10.4079 O   0  0  0  0  0  0  0  0  0  0  0  0
   32.0684   64.4656    9.5393 O   0  0  0  0  0  0  0  0  0  0  0  0
  1  2  1  0
  2  3  2  0
  2  4  1  0
  1  5  1  0
  4  6  1  1
  4  7  1  0
  5  7  1  0
  5  8  1  6
  6  9  1  0
  9 10  1  0
 10 11  1  0
 11 12  1  0
  7 13  1  6
 13 14  1  0
 13 15  2  0
M  END
$$$$
19
     RDKit          3D

 15 17  0  0  0  0  0  0  0  0999 V2000
   31.5766   67.4252    5.9768 O   0  0  0  0  0  0  0  0  0  0  0  0
   31.2264   66.6581    6.9890 C   0  0  2  0  0  0  0  0  0  0  0  0
   29.9806   66.2018    7.2052 C   0  0  2  0  0  0  0  0  0  0  0  0
   29.1382   66.0624    6.1660 O   0  0  0  0  0  0  0  0  0  0  0  0
   29.0062   67.0795    8.1282 C   0  0  1  0  0  0  0  0  0  0  0  0
   31.8103   67.2946    8.2399 C   0  0  1  0  0  0  0  0  0  0  0  0
   30.8588   67.0645    9.4058 C   0  0  2  0  0  0  0  0  0  0  0  0
   33.0971   66.5933    8.4758 C   0  0  2  0  0  0  0  0  0  0  0  0
   33.9478   66.4428    7.3835 O   0  0  0  0  0  0  0  0  0  0  0  0
   31.0387   65.6517    9.8683 C   0  0  2  0  0  0  0  0  0  0  0  0
   32.5120   65.5136    9.7708 C   0  0  0  0  0  0  0  0  0  0  0  0
   27.6450   66.5572    7.8668 C   0  0  0  0  0  0  0  0  0  0  0  0
   29.3988   66.8292    9.5297 C   0  0  0  0  0  0  0  0  0  0  0  0
   27.7858   65.8046    6.5237 C   0  0  0  0  0  0  0  0  0  0  0  0
   30.5010   64.5986    8.9072 O   0  0  0  0  0  0  0  0  0  0  0  0
  2  1  1  6
  2  3  1  0
  3  4  1  6
  3  5  1  0
  2  6  1  0
  6  7  1  0
  6  8  1  1
  8  9  1  6
  7 10  1  0
  8 11  1  0
 10 11  1  0
  5 12  1  1
  5 13  1  0
  7 13  1  6
  4 14  1  0
 12 14  1  0
 10 15  1  6
M  END
$$$$
2
     RDKit          3D

 11 11  0  0  0  0  0  0  0  0999 V2000
   32.3157   67.4065    6.0998 O   0  0  0  0  0  0  0  0  0  0  0  0
   31.6896   66.7053    7.0618 C   0  0  2  0  0  0  0  0  0  0  0  0
   30.2775   66.3859    7.0203 C   0  0  2  0  0  0  0  0  0  0  0  0
   31.9811   67.1409    8.4876 C   0  0  2  0  0  0  0  0  0  0  0  0
   33.3060   66.7630    8.8506 C   0  0  0  0  0  0  0  0  0  0  0  0
   33.7800   65.6895    8.0668 O   0  0  0  0  0  0  0  0  0  0  0  0
   29.4473   67.3449    7.5636 O   0  0  0  0  0  0  0  0  0  0  0  0
   31.0830   66.1096    9.3005 C   0  0  1  0  0  0  0  0  0  0  0  0
   31.2344   66.3182   10.6536 O   0  0  0  0  0  0  0  0  0  0  0  0
   30.0476   65.5745    8.6201 C   0  0  2  0  0  0  0  0  0  0  0  0
   30.3256   64.2104    8.8069 O   0  0  0  0  0  0  0  0  0  0  0  0
  2  1  1  6
  2  3  1  0
  2  4  1  0
  4  5  1  1
  5  6  1  0
  3  7  1  1
  4  8  1  0
  8  9  1  1
  3 10  1  0
  8 10  1  0
 10 11  1  6
M  END
$$$$
20
     RDKit          3D

 15 17  0  0  0  0  0  0  0  0999 V2000
   32.3157   67.4065    6.0998 N   0  0  0  0  0  0  0  0  0  0  0  0
   32.5933   66.8479    7.2910 C   0  0  2  0  0  0  0  0  0  0  0  0
   33.8812   66.5925    7.5827 O   0  0  0  0  0  0  0  0  0  0  0  0
   31.5057   66.4826    8.1895 C   0  0  1  0  0  0  0  0  0  0  0  0
   30.8223   67.2638    5.9354 N   0  0  0  0  0  0  0  0  0  0  0  0
   30.2740   66.6775    6.9728 C   0  0  2  0  0  0  0  0  0  0  0  0
   31.4006   65.9049    9.4668 C   0  0  2  0  0  0  0  0  0  0  0  0
   28.9319   66.4824    7.5354 C   0  0  2  0  0  0  0  0  0  0  0  0
   27.9023   66.6528    6.6453 C   0  0  0  0  0  0  0  0  0  0  0  0
   32.3334   65.1317    9.6753 O   0  0  0  0  0  0  0  0  0  0  0  0
   28.6906   66.2077    8.9075 C   0  0  1  0  0  0  0  0  0  0  0  0
   29.9205   65.9152    9.7743 C   0  0  0  0  0  0  0  0  0  0  0  0
   27.4111   66.2499    9.4735 C   0  0  0  0  0  0  0  0  0  0  0  0
   26.3926   66.3852    8.5032 C   0  0  0  0  0  0  0  0  0  0  0  0
   26.6062   66.3171    7.1630 C   0  0  0  0  0  0  0  0  0  0  0  0
  1  2  1  0
  2  3  1  6
  4  2  1  6
  1  5  1  0
  4  6  1  0
  6  5  1  1
  4  7  1  0
  6  8  1  0
  8  9  1  1
  7 10  1  6
  8 11  1  0
  7 12  1  0
 11 12  1  1
 11 13  1  0
 13 14  1  0
  9 15  1  0
 14 15  1  0
M  END
$$$$
21
     RDKit          3D

 15 16  0  0  0  0  0  0  0  0999 V2000
   32.2259   67.2337    6.6502 C   0  0  0  0  0  0  0  0  0  0  0  0
   32.9913   66.6732    7.6368 C   0  0  0  0  0  0  0  0  0  0  0  0
   31.0070   66.5835    6.8402 C   0  0  0  0  0  0  0  0  0  0  0  0
   34.3428   66.7448    7.5396 O   0  0  0  0  0  0  0  0  0  0  0  0
   32.5760   66.0438    8.8368 C   0  0  0  0  0  0  0  0  0  0  0  0
   31.2428   65.7688    8.9988 C   0  0  0  0  0  0  0  0  0  0  0  0
   30.3595   66.1644    7.9255 C   0  0  2  0  0  0  0  0  0  0  0  0
   28.9261   65.7523    8.0668 C   0  0  2  0  0  0  0  0  0  0  0  0
   28.1607   66.1106    6.9575 C   0  0  0  0  0  0  0  0  0  0  0  0
   28.3259   66.5373    9.2497 N   0  0  0  0  0  0  0  0  0  0  0  0
   30.8459   65.1262   10.1780 N   0  0  0  0  0  0  0  0  0  0  0  0
   27.0663   66.1656    9.5780 C   0  0  0  0  0  0  0  0  0  0  0  0
   26.1324   66.2404    8.5036 C   0  0  0  0  0  0  0  0  0  0  0  0
   33.6926   65.7743    9.7603 O   0  0  0  0  0  0  0  0  0  0  0  0
   26.6528   65.7210    7.3335 C   0  0  0  0  0  0  0  0  0  0  0  0
  1  2  1  0
  1  3  1  0
  2  4  1  0
  2  5  1  0
  5  6  1  0
  7  3  1  6
  6  7  1  0
  7  8  1  0
  8  9  1  6
  8 10  1  0
  6 11  1  0
 10 12  1  0
 12 13  1  0
  5 14  1  0
  9 15  1  0
 13 15  1  0
M  END
$$$$
22
     RDKit          3D

 15 16  0  0  0  0  0  0  0  0999 V2000
   28.8153   67.4298    6.4406 C   0  0  0  0  0  0  0  0  0  0  0  0
   27.9851   66.6153    7.1638 C   0  0  0  0  0  0  0  0  0  0  0  0
   30.2124   67.0477    6.5837 C   0  0  0  0  0  0  0  0  0  0  0  0
   26.6021   66.6607    7.2050 O   0  0  0  0  0  0  0  0  0  0  0  0
   28.4690   65.5825    8.0767 C   0  0  0  0  0  0  0  0  0  0  0  0
   29.8322   65.4290    8.2957 N   0  0  0  0  0  0  0  0  0  0  0  0
   30.7087   66.1571    7.5118 C   0  0  2  0  0  0  0  0  0  0  0  0
   30.1496   64.6944    9.4780 C   0  0  0  0  0  0  0  0  0  0  0  0
   31.2162   65.4321   10.2540 C   0  0  1  0  0  0  0  0  0  0  0  0
   29.6721   63.8081    9.9674 O   0  0  0  0  0  0  0  0  0  0  0  0
   32.4525   65.7835    9.3739 C   0  0  2  0  0  0  0  0  0  0  0  0
   31.9718   66.7200    8.1963 C   0  0  1  0  0  0  0  0  0  0  0  0
   33.2042   64.8265    8.7313 O   0  0  0  0  0  0  0  0  0  0  0  0
   33.0015   67.1498    7.3032 N   0  0  0  0  0  0  0  0  0  0  0  0
   30.5930   66.4785   10.9818 O   0  0  0  0  0  0  0  0  0  0  0  0
  1  2  1  0
  1  3  1  0
  2  4  1  0
  2  5  1  0
  5  6  1  0
  7  3  1  1
  6  7  1  0
  6  8  1  0
  8  9  1  0
  8 10  2  0
  9 11  1  0
  7 12  1  0
 11 12  1  0
 11 13  1  6
 12 14  1  6
  9 15  1  6
M  END
$$$$
23
     RDKit          3D

 15 16  0  0  0  0  0  0  0  0999 V2000
   32.1120   67.3066    6.2523 C   0  0  0  0  0  0  0  0  0  0  0  0
   30.7530   66.9210    6.5585 C   0  0  0  0  0  0  0  0  0  0  0  0
   29.8768   66.6102    5.6942 O   0  0  0  0  0  0  0  0  0  0  0  0
   30.2733   67.1864    7.8988 C   0  0  1  0  0  0  0  0  0  0  0  0
   32.9689   66.5616    7.0288 N   0  0  0  0  0  0  0  0  0  0  0  0
   32.6699   66.6538    8.5263 C   0  0  1  0  0  0  0  0  0  0  0  0
   28.9080   66.6702    8.1911 N   0  0  0  0  0  0  0  0  0  0  0  0
   31.1298   66.1924    8.8132 C   0  0  2  0  0  0  0  0  0  0  0  0
   33.4397   65.6936    9.4425 N   0  0  0  0  0  0  0  0  0  0  0  0
   28.6221   65.4767    8.7155 C   0  0  2  0  0  0  0  0  0  0  0  0
   31.0178   64.8947    8.7405 O   0  0  0  0  0  0  0  0  0  0  0  0
   27.3298   65.3132    9.3446 C   0  0  0  0  0  0  0  0  0  0  0  0
   29.7152   64.9911    9.7038 C   0  0  0  0  0  0  0  0  0  0  0  0
   27.0270   64.2349    9.9914 O   0  0  0  0  0  0  0  0  0  0  0  0
   26.3938   66.2326    9.2313 O   0  0  0  0  0  0  0  0  0  0  0  0
  1  2  1  0
  2  3  2  0
  2  4  1  0
  1  5  1  0
  5  6  1  0
  4  7  1  6
  4  8  1  0
  6  8  1  0
  6  9  1  1
  7 10  1  0
  8 11  1  6
 10 12  1  1
 10 13  1  0
 11 13  1  0
 12 14  1  0
 12 15  2  0
M  END
$$$$
24
     RDKit          3D

 16 17  0  0  0  0  0  0  0  0999 V2000
   32.2259   67.2337    6.6502 C   0  0  2  0  0  0  0  0  0  0  0  0
   32.9913   66.6732    7.6368 C   0  0  2  0  0  0  0  0  0  0  0  0
   31.0070   66.5835    6.8402 C   0  0  2  0  0  0  0  0  0  0  0  0
   29.8211   67.2187    6.2556 O   0  0  0  0  0  0  0  0  0  0  0  0
   28.7134   67.1179    7.0747 C   0  0  1  0  0  0  0  0  0  0  0  0
   27.8896   65.9965    6.7322 O   0  0  0  0  0  0  0  0  0  0  0  0
   34.2843   66.4369    7.5182 O   0  0  0  0  0  0  0  0  0  0  0  0
   32.0586   66.1265    8.6399 C   0  0  2  0  0  0  0  0  0  0  0  0
   30.7451   66.2634    8.2931 C   0  0  1  0  0  0  0  0  0  0  0  0
   32.3922   66.6462   10.0980 O   0  0  0  0  0  0  0  0  0  0  0  0
   32.7899   67.1511    5.3925 O   0  0  0  0  0  0  0  0  0  0  0  0
   29.2437   66.5465    8.4899 C   0  0  0  0  0  0  0  0  0  0  0  0
   28.5732   66.2441    9.6432 C   0  0  0  0  0  0  0  0  0  0  0  0
   28.6065   65.5120   10.5469 C   0  0  0  0  0  0  0  0  0  0  0  0
   28.6664   64.1903   10.3887 O   0  0  0  0  0  0  0  0  0  0  0  0
   28.6029   65.9324   11.8502 O   0  0  0  0  0  0  0  0  0  0  0  0
  1  2  1  0
  1  3  1  0
  3  4  1  1
  4  5  1  0
  5  6  1  6
  2  7  1  6
  2  8  1  0
  3  9  1  0
  8  9  1  0
  8 10  1  1
  1 11  1  6
  5 12  1  0
  9 12  1  1
 12 13  2  3
 13 14  1  0
 14 15  1  0
 14 16  2  0
M  END
$$$$
25
     RDKit          3D

 16 18  0  0  0  0  0  0  0  0999 V2000
   31.5766   67.4252    5.9768 O   0  0  0  0  0  0  0  0  0  0  0  0
   31.9935   66.8348    7.0649 C   0  0  0  0  0  0  0  0  0  0  0  0
   31.0487   66.3920    8.0535 C   0  0  1  0  0  0  0  0  0  0  0  0
   29.6754   66.1148    7.5901 C   0  0  1  0  0  0  0  0  0  0  0  0
   33.3125   66.7800    7.2261 N   0  0  0  0  0  0  0  0  0  0  0  0
   33.7889   66.3591    8.4944 C   0  0  2  0  0  0  0  0  0  0  0  0
   32.9185   66.0606    9.3215 N   0  0  0  0  0  0  0  0  0  0  0  0
   28.7272   66.0632    8.6459 C   0  0  1  0  0  0  0  0  0  0  0  0
   31.6114   65.9902    9.2030 C   0  0  2  0  0  0  0  0  0  0  0  0
   29.2833   66.0134    6.3184 C   0  0  0  0  0  0  0  0  0  0  0  0
   30.9463   65.3557   10.2840 N   0  0  0  0  0  0  0  0  0  0  0  0
   27.3811   66.0476    8.4206 C   0  0  0  0  0  0  0  0  0  0  0  0
   35.0681   66.4226    8.6463 N   0  0  0  0  0  0  0  0  0  0  0  0
   26.9928   65.8284    7.2931 C   0  0  0  0  0  0  0  0  0  0  0  0
   27.8738   65.9275    6.1417 C   0  0  0  0  0  0  0  0  0  0  0  0
   29.3373   65.9277   10.1669 C   0  0  0  0  0  0  0  0  0  0  0  0
  1  2  2  0
  3  2  1  6
  3  4  1  0
  2  5  1  0
  5  6  1  0
  6  7  1  0
  4  8  1  0
  3  9  1  0
  9  7  1  6
  4 10  1  6
  9 11  1  0
  8 12  1  6
  6 13  1  1
 12 14  1  0
 10 15  1  0
 14 15  1  0
  8 16  1  0
 11 16  1  0
M  END
$$$$
26
     RDKit          3D

 16 17  0  0  0  0  0  0  0  0999 V2000
   31.6879   67.5931    5.9647 O   0  0  0  0  0  0  0  0  0  0  0  0
   31.2485   66.7073    6.8918 C   0  0  2  0  0  0  0  0  0  0  0  0
   29.9332   66.4170    7.0830 C   0  0  1  0  0  0  0  0  0  0  0  0
   29.3751   66.4312    8.3447 C   0  0  1  0  0  0  0  0  0  0  0  0
   29.0043   66.3731    6.0214 C   0  0  0  0  0  0  0  0  0  0  0  0
   32.0077   66.9854    8.2389 C   0  0  2  0  0  0  0  0  0  0  0  0
   27.9991   66.1171    8.6071 C   0  0  0  0  0  0  0  0  0  0  0  0
   30.3782   66.6449    9.5242 C   0  0  2  0  0  0  0  0  0  0  0  0
   33.5161   66.6894    7.9629 N   0  0  0  0  0  0  0  0  0  0  0  0
   31.7118   66.2066    9.4019 C   0  0  2  0  0  0  0  0  0  0  0  0
   32.5848   66.4476   10.4370 O   0  0  0  0  0  0  0  0  0  0  0  0
   27.1840   66.0529    7.5259 C   0  0  2  0  0  0  0  0  0  0  0  0
   25.8235   65.8058    7.6826 O   0  0  0  0  0  0  0  0  0  0  0  0
   33.8690   66.1500    6.7593 O   0  0  0  0  0  0  0  0  0  0  0  0
   29.6509   66.6115   10.8096 O   0  0  0  0  0  0  0  0  0  0  0  0
   27.7126   66.1386    6.2695 C   0  0  0  0  0  0  0  0  0  0  0  0
  2  1  1  6
  2  3  1  0
  3  4  1  0
  3  5  1  6
  2  6  1  0
  4  7  1  1
  4  8  1  0
  6  9  1  6
  6 10  1  0
  8 10  1  0
 10 11  1  1
  7 12  1  0
 12 13  1  6
  9 14  1  0
  8 15  1  1
  5 16  1  0
 12 16  1  0
M  END
$$$$
27
     RDKit          3D

 16 17  0  0  0  0  0  0  0  0999 V2000
   33.3011   65.4089    8.7870 O   0  0  0  0  0  0  0  0  0  0  0  0
   32.7247   66.4329    8.1846 C   0  0  2  0  0  0  0  0  0  0  0  0
   31.2783   66.4145    8.1489 C   0  0  0  0  0  0  0  0  0  0  0  0
   30.5030   65.8343    9.1229 C   0  0  0  0  0  0  0  0  0  0  0  0
   30.6601   66.9763    6.9071 C   0  0  0  0  0  0  0  0  0  0  0  0
   29.1592   67.0740    7.0453 C   0  0  0  0  0  0  0  0  0  0  0  0
   29.1363   65.8567    8.9510 N   0  0  0  0  0  0  0  0  0  0  0  0
   28.5054   65.3132   10.1346 C   0  0  0  0  0  0  0  0  0  0  0  0
   28.4138   66.3912    7.9465 C   0  0  0  0  0  0  0  0  0  0  0  0
   29.1061   64.7788   11.1122 N   0  0  0  0  0  0  0  0  0  0  0  0
   31.5446   67.6947    6.1789 N   0  0  0  0  0  0  0  0  0  0  0  0
   28.6463   64.5999   12.4748 C   0  0  0  0  0  0  0  0  0  0  0  0
   27.1562   65.2014   10.1602 O   0  0  0  0  0  0  0  0  0  0  0  0
   32.9857   66.7839    6.7351 C   0  0  0  0  0  0  0  0  0  0  0  0
   29.3638   63.8447   13.3851 N   0  0  0  0  0  0  0  0  0  0  0  0
   27.5669   65.0340   12.9229 O   0  0  0  0  0  0  0  0  0  0  0  0
  2  1  1  6
  2  3  1  0
  3  4  1  0
  3  5  2  0
  5  6  1  0
  4  7  1  0
  7  8  1  0
  6  9  1  0
  7  9  1  0
  8 10  1  0
  5 11  1  0
 10 12  1  0
  8 13  2  0
  2 14  1  0
 11 14  1  0
 12 15  1  0
 12 16  2  0
M  END
$$$$
28
     RDKit          3D

 16 17  0  0  0  0  0  0  0  0999 V2000
   33.4806   66.0184    6.9440 O   0  0  0  0  0  0  0  0  0  0  0  0
   32.4302   66.8734    7.2195 C   0  0  2  0  0  0  0  0  0  0  0  0
   31.5425   66.2938    8.1776 C   0  0  2  0  0  0  0  0  0  0  0  0
   31.6476   67.1225    5.9850 C   0  0  1  0  0  0  0  0  0  0  0  0
   30.1998   66.5526    8.0377 C   0  0  2  0  0  0  0  0  0  0  0  0
   32.0970   65.6958    9.4898 C   0  0  0  0  0  0  0  0  0  0  0  0
   30.4568   66.3454    6.2339 C   0  0  1  0  0  0  0  0  0  0  0  0
   29.1606   66.8656    5.7670 O   0  0  0  0  0  0  0  0  0  0  0  0
   31.7353   68.5324    5.9825 O   0  0  0  0  0  0  0  0  0  0  0  0
   29.6441   67.9154    8.2482 C   0  0  0  0  0  0  0  0  0  0  0  0
   29.3322   65.5608    8.7730 O   0  0  0  0  0  0  0  0  0  0  0  0
   28.0309   65.9300    9.0061 C   0  0  1  0  0  0  0  0  0  0  0  0
   28.3098   67.4660    9.0013 C   0  0  0  0  0  0  0  0  0  0  0  0
   27.0016   65.6197    8.0344 C   0  0  0  0  0  0  0  0  0  0  0  0
   33.0447   66.4232   10.1006 O   0  0  0  0  0  0  0  0  0  0  0  0
   25.8422   65.6042    8.2944 C   0  0  0  0  0  0  0  0  0  0  0  0
  2  1  1  6
  2  3  1  0
  2  4  1  0
  3  5  1  0
  3  6  1  1
  4  7  1  0
  5  7  1  0
  7  8  1  6
  4  9  1  1
  5 10  1  6
  5 11  1  0
 11 12  1  0
 10 13  1  0
 12 13  1  0
 12 14  1  6
  6 15  1  0
 14 16  2  0
M  END
$$$$
29
     RDKit          3D

 16 17  0  0  0  0  0  0  0  0999 V2000
   33.4806   66.0184    6.9440 O   0  0  0  0  0  0  0  0  0  0  0  0
   32.4302   66.8734    7.2195 C   0  0  2  0  0  0  0  0  0  0  0  0
   31.5425   66.2938    8.1776 C   0  0  2  0  0  0  0  0  0  0  0  0
   31.6476   67.1225    5.9850 C   0  0  1  0  0  0  0  0  0  0  0  0
   30.1998   66.5526    8.0377 C   0  0  2  0  0  0  0  0  0  0  0  0
   32.0970   65.6958    9.4898 C   0  0  0  0  0  0  0  0  0  0  0  0
   30.4568   66.3454    6.2339 C   0  0  1  0  0  0  0  0  0  0  0  0
   29.1606   66.8656    5.7670 O   0  0  0  0  0  0  0  0  0  0  0  0
   31.7353   68.5324    5.9825 O   0  0  0  0  0  0  0  0  0  0  0  0
   29.6441   67.9154    8.2482 C   0  0  0  0  0  0  0  0  0  0  0  0
   29.3322   65.5608    8.7730 O   0  0  0  0  0  0  0  0  0  0  0  0
   28.0309   65.9300    9.0061 C   0  0  0  0  0  0  0  0  0  0  0  0
   28.3098   67.4660    9.0013 C   0  0  1  0  0  0  0  0  0  0  0  0
   28.3503   67.5873   10.5061 N   0  0  0  0  0  0  0  0  0  0  0  0
   27.0158   65.2734    9.2087 O   0  0  0  0  0  0  0  0  0  0  0  0
   31.3498   64.9926   10.1744 O   0  0  0  0  0  0  0  0  0  0  0  0
  2  1  1  6
  2  3  1  0
  2  4  1  0
  3  5  1  0
  3  6  1  1
  4  7  1  0
  5  7  1  0
  7  8  1  6
  4  9  1  1
  5 10  1  6
  5 11  1  0
 11 12  1  0
 10 13  1  0
 12 13  1  0
 13 14  1  1
 12 15  2  0
  6 16  1  0
M  END
$$$$
3
     RDKit          3D

 12 12  0  0  0  0  0  0  0  0999 V2000
   28.8153   67.4298    6.4406 C   0  0  0  0  0  0  0  0  0  0  0  0
   27.9851   66.6153    7.1638 C   0  0  0  0  0  0  0  0  0  0  0  0
   30.2124   67.0477    6.5837 C   0  0  1  0  0  0  0  0  0  0  0  0
   26.6021   66.6607    7.2050 O   0  0  0  0  0  0  0  0  0  0  0  0
   28.4690   65.5825    8.0767 C   0  0  0  0  0  0  0  0  0  0  0  0
   29.8322   65.4290    8.2957 N   0  0  0  0  0  0  0  0  0  0  0  0
   31.1843   67.7381    5.8838 O   0  0  0  0  0  0  0  0  0  0  0  0
   30.6950   66.1456    7.5276 C   0  0  1  0  0  0  0  0  0  0  0  0
   32.0205   65.8792    7.6327 C   0  0  2  0  0  0  0  0  0  0  0  0
   32.5253   65.6041    9.0386 C   0  0  0  0  0  0  0  0  0  0  0  0
   33.0930   66.3128    6.8582 N   0  0  0  0  0  0  0  0  0  0  0  0
   32.8003   66.7983    9.8690 N   0  0  0  0  0  0  0  0  0  0  0  0
  1  2  1  0
  1  3  1  0
  2  4  1  0
  2  5  1  0
  5  6  1  0
  3  7  1  1
  3  8  1  0
  8  6  1  6
  8  9  1  0
  9 10  1  0
  9 11  1  1
 10 12  1  0
M  END
$$$$
30
     RDKit          3D

 17 19  0  0  0  0  0  0  0  0999 V2000
   25.7378   65.3272    7.6438 C   0  0  0  0  0  0  0  0  0  0  0  0
   26.7717   66.1068    8.1076 C   0  0  0  0  0  0  0  0  0  0  0  0
   25.0271   64.6489    8.3685 C   0  0  1  0  0  0  0  0  0  0  0  0
   27.1466   65.9761    9.4486 C   0  0  2  0  0  0  0  0  0  0  0  0
   25.1735   64.5539    9.7299 C   0  0  0  0  0  0  0  0  0  0  0  0
   23.9063   63.9496    7.7321 O   0  0  0  0  0  0  0  0  0  0  0  0
   26.2405   65.2464   10.2777 C   0  0  1  0  0  0  0  0  0  0  0  0
   26.6102   65.0835   11.7119 C   0  0  0  0  0  0  0  0  0  0  0  0
   28.2966   66.8055   10.0423 C   0  0  0  0  0  0  0  0  0  0  0  0
   28.4538   66.7492   11.3594 C   0  0  0  0  0  0  0  0  0  0  0  0
   27.6651   65.9462   12.2128 C   0  0  0  0  0  0  0  0  0  0  0  0
   29.5635   67.5877   11.9505 C   0  0  0  0  0  0  0  0  0  0  0  0
   27.8293   65.9515   13.7785 C   0  0  2  0  0  0  0  0  0  0  0  0
   28.9746   66.7415   14.1312 C   0  0  0  0  0  0  0  0  0  0  0  0
   27.8957   64.6834   14.3418 N   0  0  0  0  0  0  0  0  0  0  0  0
   29.6450   67.6456   13.3274 C   0  0  0  0  0  0  0  0  0  0  0  0
   26.8211   63.7471   14.1973 O   0  0  0  0  0  0  0  0  0  0  0  0
  1  2  1  0
  1  3  1  0
  4  2  1  1
  3  5  1  0
  3  6  1  1
  4  7  1  0
  7  5  1  6
  7  8  1  0
  4  9  1  0
  9 10  1  0
  8 11  1  0
 10 11  1  0
 10 12  1  0
 11 13  1  0
 13 14  1  0
 13 15  1  6
 12 16  1  0
 14 16  1  0
 15 17  1  0
M  END
$$$$
31
     RDKit          3D

 17 18  0  0  0  0  0  0  0  0999 V2000
   33.7491   66.3717    7.4496 O   0  0  0  0  0  0  0  0  0  0  0  0
   32.6093   66.5128    8.1282 C   0  0  2  0  0  0  0  0  0  0  0  0
   32.4578   65.9297    9.3762 C   0  0  0  0  0  0  0  0  0  0  0  0
   31.2166   65.9523    9.9679 N   0  0  0  0  0  0  0  0  0  0  0  0
   31.4302   66.5239    7.2654 C   0  0  1  0  0  0  0  0  0  0  0  0
   30.2079   66.0778    9.1021 C   0  0  1  0  0  0  0  0  0  0  0  0
   28.9211   66.0016    9.8025 C   0  0  2  0  0  0  0  0  0  0  0  0
   30.1805   66.6746    7.8355 C   0  0  2  0  0  0  0  0  0  0  0  0
   28.9659   66.9182    7.1712 C   0  0  0  0  0  0  0  0  0  0  0  0
   31.5483   66.8939    5.9202 O   0  0  0  0  0  0  0  0  0  0  0  0
   28.8259   65.4748   11.1578 C   0  0  0  0  0  0  0  0  0  0  0  0
   27.6899   66.3076    9.1388 C   0  0  0  0  0  0  0  0  0  0  0  0
   27.7683   66.7057    7.8312 C   0  0  0  0  0  0  0  0  0  0  0  0
   28.0107   64.6426   11.5943 N   0  0  0  0  0  0  0  0  0  0  0  0
   28.0392   64.1192   12.8888 C   0  0  0  0  0  0  0  0  0  0  0  0
   29.1625   64.3885   13.5696 N   0  0  0  0  0  0  0  0  0  0  0  0
   26.9792   63.4518   13.4527 C   0  0  0  0  0  0  0  0  0  0  0  0
  2  1  1  6
  2  3  1  0
  3  4  1  0
  2  5  1  0
  6  4  1  1
  6  7  1  0
  5  8  1  0
  6  8  1  0
  8  9  1  6
  5 10  1  6
  7 11  1  6
  7 12  1  0
  9 13  1  0
 12 13  1  0
 11 14  1  0
 14 15  1  0
 15 16  2  0
 15 17  1  0
M  END
$$$$
32
     RDKit          3D

 17 19  0  0  0  0  0  0  0  0999 V2000
   25.7378   65.3272    7.6438 C   0  0  0  0  0  0  0  0  0  0  0  0
   26.7717   66.1068    8.1076 C   0  0  0  0  0  0  0  0  0  0  0  0
   25.0271   64.6489    8.3685 C   0  0  0  0  0  0  0  0  0  0  0  0
   25.1957   64.5473    9.7366 C   0  0  0  0  0  0  0  0  0  0  0  0
   26.2456   65.2980   10.2941 C   0  0  0  0  0  0  0  0  0  0  0  0
   27.0569   66.0838    9.4891 C   0  0  0  0  0  0  0  0  0  0  0  0
   28.2262   66.6451   10.0171 C   0  0  0  0  0  0  0  0  0  0  0  0
   29.5053   66.4149    9.4281 C   0  0  2  0  0  0  0  0  0  0  0  0
   30.6145   66.0615   10.2408 N   0  0  0  0  0  0  0  0  0  0  0  0
   31.6649   65.6227    9.8414 C   0  0  0  0  0  0  0  0  0  0  0  0
   29.8119   66.5881    8.0935 C   0  0  0  0  0  0  0  0  0  0  0  0
   32.1100   65.9075    8.4530 N   0  0  0  0  0  0  0  0  0  0  0  0
   31.1490   66.3856    7.6259 C   0  0  0  0  0  0  0  0  0  0  0  0
   33.5027   65.5962    8.0489 C   0  0  0  0  0  0  0  0  0  0  0  0
   31.4853   66.6685    6.3079 C   0  0  0  0  0  0  0  0  0  0  0  0
   33.8491   66.5217    6.9857 C   0  0  0  0  0  0  0  0  0  0  0  0
   32.8207   66.6129    5.9287 N   0  0  0  0  0  0  0  0  0  0  0  0
  1  2  1  0
  1  3  1  0
  3  4  1  0
  4  5  1  0
  2  6  1  0
  5  6  1  0
  6  7  1  0
  8  7  1  1
  8  9  1  0
  9 10  1  0
  8 11  1  0
 10 12  1  0
 11 13  1  0
 12 13  1  0
 12 14  1  0
 13 15  1  0
 14 16  1  0
 15 17  1  0
 16 17  1  0
M  END
$$$$
33
     RDKit          3D

 17 19  0  0  0  0  0  0  0  0999 V2000
   25.7378   65.3272    7.6438 C   0  0  0  0  0  0  0  0  0  0  0  0
   26.7717   66.1068    8.1076 C   0  0  0  0  0  0  0  0  0  0  0  0
   25.0271   64.6489    8.3685 C   0  0  0  0  0  0  0  0  0  0  0  0
   25.1957   64.5473    9.7366 C   0  0  0  0  0  0  0  0  0  0  0  0
   26.2456   65.2980   10.2941 C   0  0  0  0  0  0  0  0  0  0  0  0
   27.0569   66.0838    9.4891 C   0  0  0  0  0  0  0  0  0  0  0  0
   28.2262   66.6451   10.0171 C   0  0  0  0  0  0  0  0  0  0  0  0
   29.5053   66.4149    9.4281 C   0  0  2  0  0  0  0  0  0  0  0  0
   30.6145   66.0615   10.2408 N   0  0  0  0  0  0  0  0  0  0  0  0
   31.6649   65.6227    9.8414 C   0  0  0  0  0  0  0  0  0  0  0  0
   29.8119   66.5881    8.0935 C   0  0  0  0  0  0  0  0  0  0  0  0
   32.1100   65.9075    8.4530 N   0  0  0  0  0  0  0  0  0  0  0  0
   31.1490   66.3856    7.6259 C   0  0  0  0  0  0  0  0  0  0  0  0
   33.5027   65.5962    8.0489 C   0  0  0  0  0  0  0  0  0  0  0  0
   33.7539   66.2137    7.0700 O   0  0  0  0  0  0  0  0  0  0  0  0
   31.5300   66.5536    6.5156 C   0  0  0  0  0  0  0  0  0  0  0  0
   32.9066   67.1864    6.3012 C   0  0  0  0  0  0  0  0  0  0  0  0
  1  2  1  0
  1  3  1  0
  3  4  1  0
  4  5  1  0
  2  6  1  0
  5  6  1  0
  6  7  1  0
  8  7  1  1
  8  9  1  0
  9 10  1  0
  8 11  1  0
 10 12  1  0
 11 13  1  0
 12 13  1  0
 12 14  1  0
 14 15  1  0
 13 16  1  0
 15 17  1  0
 16 17  1  0
M  END
$$$$
34
     RDKit          3D

 17 18  0  0  0  0  0  0  0  0999 V2000
   33.4806   66.0184    6.9440 O   0  0  0  0  0  0  0  0  0  0  0  0
   32.4302   66.8734    7.2195 C   0  0  2  0  0  0  0  0  0  0  0  0
   31.5425   66.2938    8.1776 C   0  0  2  0  0  0  0  0  0  0  0  0
   31.6476   67.1225    5.9850 C   0  0  1  0  0  0  0  0  0  0  0  0
   30.1998   66.5526    8.0377 C   0  0  2  0  0  0  0  0  0  0  0  0
   32.0970   65.6958    9.4898 C   0  0  0  0  0  0  0  0  0  0  0  0
   30.4568   66.3454    6.2339 C   0  0  1  0  0  0  0  0  0  0  0  0
   29.1606   66.8656    5.7670 O   0  0  0  0  0  0  0  0  0  0  0  0
   31.7353   68.5324    5.9825 O   0  0  0  0  0  0  0  0  0  0  0  0
   29.6441   67.9154    8.2482 C   0  0  0  0  0  0  0  0  0  0  0  0
   29.3322   65.5608    8.7730 O   0  0  0  0  0  0  0  0  0  0  0  0
   28.0309   65.9300    9.0061 C   0  0  1  0  0  0  0  0  0  0  0  0
   28.3098   67.4660    9.0013 C   0  0  0  0  0  0  0  0  0  0  0  0
   27.0016   65.6197    8.0344 C   0  0  0  0  0  0  0  0  0  0  0  0
   33.0447   66.4232   10.1006 O   0  0  0  0  0  0  0  0  0  0  0  0
   25.7211   65.3557    8.5050 C   0  0  0  0  0  0  0  0  0  0  0  0
   24.8678   64.5702    7.7897 C   0  0  0  0  0  0  0  0  0  0  0  0
  2  1  1  6
  2  3  1  0
  2  4  1  0
  3  5  1  0
  3  6  1  1
  4  7  1  0
  5  7  1  0
  7  8  1  6
  4  9  1  1
  5 10  1  6
  5 11  1  0
 11 12  1  0
 10 13  1  0
 12 13  1  0
 12 14  1  6
  6 15  1  0
 14 16  1  0
 16 17  2  0
M  END
$$$$
35
     RDKit          3D

 17 18  0  0  0  0  0  0  0  0999 V2000
   32.3157   67.4065    6.0998 O   0  0  0  0  0  0  0  0  0  0  0  0
   32.4451   66.7940    7.2605 C   0  0  0  0  0  0  0  0  0  0  0  0
   31.3248   66.5025    8.0277 C   0  0  2  0  0  0  0  0  0  0  0  0
   31.4567   66.1752    9.3383 C   0  0  0  0  0  0  0  0  0  0  0  0
   33.7369   66.4078    7.4964 N   0  0  0  0  0  0  0  0  0  0  0  0
   30.3442   65.6111    7.4060 C   0  0  2  0  0  0  0  0  0  0  0  0
   29.5081   66.2988    6.3469 C   0  0  0  0  0  0  0  0  0  0  0  0
   28.3037   66.4804    6.9116 C   0  0  0  0  0  0  0  0  0  0  0  0
   28.0130   66.1061    8.2053 C   0  0  2  0  0  0  0  0  0  0  0  0
   29.2192   65.3446    8.4267 N   0  0  0  0  0  0  0  0  0  0  0  0
   30.4308   65.9052   10.2181 N   0  0  0  0  0  0  0  0  0  0  0  0
   29.3183   65.5309    9.8709 C   0  0  0  0  0  0  0  0  0  0  0  0
   32.7462   66.1346    9.8773 O   0  0  0  0  0  0  0  0  0  0  0  0
   26.7942   65.4151    8.5281 C   0  0  0  0  0  0  0  0  0  0  0  0
   25.6815   66.1091    8.6345 O   0  0  0  0  0  0  0  0  0  0  0  0
   26.6723   64.1511    8.4760 O   0  0  0  0  0  0  0  0  0  0  0  0
   28.4862   65.1314   10.7239 O   0  0  0  0  0  0  0  0  0  0  0  0
  1  2  2  0
  3  2  1  6
  3  4  1  0
  2  5  1  0
  3  6  1  0
  6  7  1  6
  7  8  1  0
  8  9  1  0
  6 10  1  0
  9 10  1  0
  4 11  1  0
 10 12  1  0
 11 12  1  0
  4 13  2  0
  9 14  1  6
 14 15  2  0
 14 16  1  0
 12 17  2  0
M  END
$$$$
36
     RDKit          3D

 17 19  0  0  0  0  0  0  0  0999 V2000
   25.7378   65.3272    7.6438 C   0  0  0  0  0  0  0  0  0  0  0  0
   26.7717   66.1068    8.1076 C   0  0  0  0  0  0  0  0  0  0  0  0
   25.0271   64.6489    8.3685 C   0  0  0  0  0  0  0  0  0  0  0  0
   25.1957   64.5473    9.7366 C   0  0  0  0  0  0  0  0  0  0  0  0
   26.2456   65.2980   10.2941 C   0  0  0  0  0  0  0  0  0  0  0  0
   27.0569   66.0838    9.4891 C   0  0  0  0  0  0  0  0  0  0  0  0
   28.2262   66.6451   10.0171 C   0  0  0  0  0  0  0  0  0  0  0  0
   29.5053   66.4149    9.4281 C   0  0  2  0  0  0  0  0  0  0  0  0
   30.6145   66.0615   10.2408 N   0  0  0  0  0  0  0  0  0  0  0  0
   31.6649   65.6227    9.8414 C   0  0  0  0  0  0  0  0  0  0  0  0
   29.8119   66.5881    8.0935 C   0  0  0  0  0  0  0  0  0  0  0  0
   32.1100   65.9075    8.4530 N   0  0  0  0  0  0  0  0  0  0  0  0
   31.1490   66.3856    7.6259 C   0  0  2  0  0  0  0  0  0  0  0  0
   33.5027   65.5962    8.0489 C   0  0  0  0  0  0  0  0  0  0  0  0
   31.2487   66.8133    6.3421 C   0  0  0  0  0  0  0  0  0  0  0  0
   33.9018   66.5277    7.1631 N   0  0  0  0  0  0  0  0  0  0  0  0
   32.8289   67.0049    6.1461 C   0  0  0  0  0  0  0  0  0  0  0  0
  1  2  1  0
  1  3  1  0
  3  4  1  0
  4  5  1  0
  2  6  1  0
  5  6  1  0
  6  7  1  0
  8  7  1  1
  8  9  1  0
  9 10  1  0
  8 11  1  0
 10 12  1  0
 13 11  1  1
 12 13  1  0
 12 14  1  0
 13 15  1  0
 14 16  1  0
 15 17  1  0
 16 17  1  0
M  END
$$$$
37
     RDKit          3D

 17 19  0  0  0  0  0  0  0  0999 V2000
   25.7378   65.3272    7.6438 C   0  0  0  0  0  0  0  0  0  0  0  0
   26.7717   66.1068    8.1076 C   0  0  0  0  0  0  0  0  0  0  0  0
   25.0271   64.6489    8.3685 C   0  0  0  0  0  0  0  0  0  0  0  0
   25.1957   64.5473    9.7366 C   0  0  0  0  0  0  0  0  0  0  0  0
   26.2456   65.2980   10.2941 C   0  0  0  0  0  0  0  0  0  0  0  0
   27.0569   66.0838    9.4891 C   0  0  0  0  0  0  0  0  0  0  0  0
   28.2262   66.6451   10.0171 C   0  0  0  0  0  0  0  0  0  0  0  0
   29.5053   66.4149    9.4281 C   0  0  2  0  0  0  0  0  0  0  0  0
   30.6145   66.0615   10.2408 N   0  0  0  0  0  0  0  0  0  0  0  0
   31.6649   65.6227    9.8414 C   0  0  0  0  0  0  0  0  0  0  0  0
   29.8119   66.5881    8.0935 C   0  0  0  0  0  0  0  0  0  0  0  0
   32.1100   65.9075    8.4530 N   0  0  0  0  0  0  0  0  0  0  0  0
   31.1490   66.3856    7.6259 C   0  0  0  0  0  0  0  0  0  0  0  0
   33.5027   65.5962    8.0489 C   0  0  0  0  0  0  0  0  0  0  0  0
   31.4853   66.6685    6.3079 C   0  0  0  0  0  0  0  0  0  0  0  0
   33.8491   66.5217    6.9857 C   0  0  0  0  0  0  0  0  0  0  0  0
   32.8451   67.2773    6.1931 C   0  0  0  0  0  0  0  0  0  0  0  0
  1  2  1  0
  1  3  1  0
  3  4  1  0
  4  5  1  0
  2  6  1  0
  5  6  1  0
  6  7  1  0
  8  7  1  1
  8  9  1  0
  9 10  1  0
  8 11  1  0
 10 12  1  0
 11 13  1  0
 12 13  1  0
 12 14  1  0
 13 15  1  0
 14 16  1  0
 15 17  1  0
 16 17  2  0
M  END
$$$$
38
     RDKit          3D

 17 19  0  0  0  0  0  0  0  0999 V2000
   25.7378   65.3272    7.6438 C   0  0  0  0  0  0  0  0  0  0  0  0
   26.7717   66.1068    8.1076 C   0  0  0  0  0  0  0  0  0  0  0  0
   25.0271   64.6489    8.3685 C   0  0  0  0  0  0  0  0  0  0  0  0
   25.1957   64.5473    9.7366 C   0  0  0  0  0  0  0  0  0  0  0  0
   26.2456   65.2980   10.2941 C   0  0  0  0  0  0  0  0  0  0  0  0
   27.0569   66.0838    9.4891 C   0  0  0  0  0  0  0  0  0  0  0  0
   28.2262   66.6451   10.0171 C   0  0  0  0  0  0  0  0  0  0  0  0
   29.5053   66.4149    9.4281 C   0  0  2  0  0  0  0  0  0  0  0  0
   30.6145   66.0615   10.2408 N   0  0  0  0  0  0  0  0  0  0  0  0
   31.6649   65.6227    9.8414 C   0  0  0  0  0  0  0  0  0  0  0  0
   29.8119   66.5881    8.0935 C   0  0  0  0  0  0  0  0  0  0  0  0
   32.1100   65.9075    8.4530 N   0  0  0  0  0  0  0  0  0  0  0  0
   31.1506   66.3573    7.6186 C   0  0  0  0  0  0  0  0  0  0  0  0
   31.4171   66.6262    6.2477 C   0  0  0  0  0  0  0  0  0  0  0  0
   33.3834   66.1438    7.9968 C   0  0  0  0  0  0  0  0  0  0  0  0
   33.3064   66.7236    6.7396 C   0  0  0  0  0  0  0  0  0  0  0  0
   32.4374   66.7415    5.8911 C   0  0  0  0  0  0  0  0  0  0  0  0
  1  2  1  0
  1  3  1  0
  3  4  1  0
  4  5  1  0
  2  6  1  0
  5  6  1  0
  6  7  1  0
  8  7  1  1
  8  9  1  0
  9 10  1  0
  8 11  1  0
 10 12  1  0
 11 13  1  0
 12 13  1  0
 13 14  1  0
 12 15  1  0
 15 16  1  0
 14 17  1  0
 16 17  1  0
M  END
$$$$
39
     RDKit          3D

 17 18  0  0  0  0  0  0  0  0999 V2000
   32.1120   67.3066    6.2523 C   0  0  0  0  0  0  0  0  0  0  0  0
   30.7530   66.9210    6.5585 C   0  0  0  0  0  0  0  0  0  0  0  0
   29.8768   66.6102    5.6942 O   0  0  0  0  0  0  0  0  0  0  0  0
   30.2733   67.1864    7.8988 C   0  0  1  0  0  0  0  0  0  0  0  0
   32.9689   66.5616    7.0288 N   0  0  0  0  0  0  0  0  0  0  0  0
   32.6699   66.6538    8.5263 C   0  0  1  0  0  0  0  0  0  0  0  0
   28.9080   66.6702    8.1911 N   0  0  0  0  0  0  0  0  0  0  0  0
   31.1298   66.1924    8.8132 C   0  0  2  0  0  0  0  0  0  0  0  0
   33.4397   65.6936    9.4425 N   0  0  0  0  0  0  0  0  0  0  0  0
   28.6221   65.4767    8.7155 C   0  0  2  0  0  0  0  0  0  0  0  0
   31.0178   64.8947    8.7405 O   0  0  0  0  0  0  0  0  0  0  0  0
   27.3298   65.3132    9.3446 C   0  0  2  0  0  0  0  0  0  0  0  0
   29.7152   64.9911    9.7038 C   0  0  0  0  0  0  0  0  0  0  0  0
   27.0270   64.2349    9.9914 O   0  0  0  0  0  0  0  0  0  0  0  0
   26.1441   65.7143    8.5629 C   0  0  0  0  0  0  0  0  0  0  0  0
   25.5052   64.8373    7.9514 O   0  0  0  0  0  0  0  0  0  0  0  0
   25.5663   66.8262    8.7949 O   0  0  0  0  0  0  0  0  0  0  0  0
  1  2  1  0
  2  3  2  0
  2  4  1  0
  1  5  1  0
  5  6  1  0
  4  7  1  6
  4  8  1  0
  6  8  1  0
  6  9  1  1
  7 10  1  0
  8 11  1  6
 10 12  1  0
 10 13  1  1
 11 13  1  0
 12 14  1  6
 12 15  1  0
 15 16  2  0
 15 17  1  0
M  END
$$$$
4
     RDKit          3D

 12 13  0  0  0  0  0  0  0  0999 V2000
   33.4806   66.0184    6.9440 O   0  0  0  0  0  0  0  0  0  0  0  0
   32.4302   66.8734    7.2195 C   0  0  1  0  0  0  0  0  0  0  0  0
   31.7933   67.3288    6.1072 C   0  0  0  0  0  0  0  0  0  0  0  0
   30.2882   67.0145    6.3196 C   0  0  0  0  0  0  0  0  0  0  0  0
   31.6157   66.2626    8.3424 C   0  0  2  0  0  0  0  0  0  0  0  0
   30.2260   66.4056    7.7430 C   0  0  2  0  0  0  0  0  0  0  0  0
   31.7804   66.7444    9.7064 C   0  0  0  0  0  0  0  0  0  0  0  0
   32.9622   65.9377   10.3306 N   0  0  0  0  0  0  0  0  0  0  0  0
   29.1621   67.0949    5.6653 C   0  0  0  0  0  0  0  0  0  0  0  0
   29.1150   65.5191    7.8790 C   0  0  1  0  0  0  0  0  0  0  0  0
   28.6455   65.2737    9.2453 O   0  0  0  0  0  0  0  0  0  0  0  0
   28.1380   66.2478    6.4652 C   0  0  0  0  0  0  0  0  0  0  0  0
  2  1  1  6
  2  3  1  0
  3  4  1  0
  2  5  1  0
  6  4  1  6
  5  6  1  0
  5  7  1  1
  7  8  1  0
  4  9  1  0
  6 10  1  0
 10 11  1  1
  9 12  1  0
 10 12  1  0
M  END
$$$$
40
     RDKit          3D

 17 17  0  0  0  0  0  0  0  0999 V2000
   33.6183   66.0059    7.4162 O   0  0  0  0  0  0  0  0  0  0  0  0
   32.6565   66.5888    8.1501 C   0  0  1  0  0  0  0  0  0  0  0  0
   31.4523   66.7387    7.3552 C   0  0  0  0  0  0  0  0  0  0  0  0
   32.3361   65.8113    9.3543 C   0  0  1  0  0  0  0  0  0  0  0  0
   30.2368   66.5771    7.9920 C   0  0  2  0  0  0  0  0  0  0  0  0
   32.9156   66.1884   10.4488 N   0  0  0  0  0  0  0  0  0  0  0  0
   30.7974   65.9064    9.3323 C   0  0  0  0  0  0  0  0  0  0  0  0
   29.1419   65.8202    7.4146 C   0  0  0  0  0  0  0  0  0  0  0  0
   27.8505   66.0429    8.0644 N   0  0  0  0  0  0  0  0  0  0  0  0
   29.9566   65.5563   10.3323 C   0  0  0  0  0  0  0  0  0  0  0  0
   26.6977   65.6444    7.5325 C   0  0  0  0  0  0  0  0  0  0  0  0
   31.4589   67.2385    5.9453 O   0  0  0  0  0  0  0  0  0  0  0  0
   25.5358   66.0249    8.3225 C   0  0  0  0  0  0  0  0  0  0  0  0
   25.1943   65.1205    9.2585 C   0  0  2  0  0  0  0  0  0  0  0  0
   24.5867   65.5448   10.4662 C   0  0  0  0  0  0  0  0  0  0  0  0
   26.3735   64.2936    9.7513 O   0  0  0  0  0  0  0  0  0  0  0  0
   25.0999   66.4996   11.0491 O   0  0  0  0  0  0  0  0  0  0  0  0
  2  1  1  6
  2  3  1  0
  2  4  1  0
  3  5  1  0
  4  6  1  1
  4  7  1  0
  5  7  1  0
  5  8  1  6
  8  9  1  0
  7 10  2  0
  9 11  1  0
  3 12  2  0
 11 13  1  0
 13 14  1  0
 14 15  1  0
 14 16  1  1
 15 17  1  0
M  END
$$$$
41
     RDKit          3D

 17 18  0  0  0  0  0  0  0  0999 V2000
   32.3157   67.4065    6.0998 O   0  0  0  0  0  0  0  0  0  0  0  0
   32.4451   66.7940    7.2605 C   0  0  0  0  0  0  0  0  0  0  0  0
   31.3248   66.5025    8.0277 C   0  0  2  0  0  0  0  0  0  0  0  0
   31.4567   66.1752    9.3383 C   0  0  0  0  0  0  0  0  0  0  0  0
   33.7369   66.4078    7.4964 N   0  0  0  0  0  0  0  0  0  0  0  0
   30.3442   65.6111    7.4060 C   0  0  2  0  0  0  0  0  0  0  0  0
   29.5081   66.2988    6.3469 C   0  0  0  0  0  0  0  0  0  0  0  0
   28.3037   66.4804    6.9116 C   0  0  0  0  0  0  0  0  0  0  0  0
   28.0130   66.1061    8.2053 C   0  0  0  0  0  0  0  0  0  0  0  0
   29.2192   65.3446    8.4267 N   0  0  0  0  0  0  0  0  0  0  0  0
   30.4308   65.9052   10.2181 N   0  0  0  0  0  0  0  0  0  0  0  0
   29.3183   65.5309    9.8709 C   0  0  2  0  0  0  0  0  0  0  0  0
   28.4720   64.8736   10.7447 C   0  0  0  0  0  0  0  0  0  0  0  0
   28.7461   64.9508   12.1840 C   0  0  0  0  0  0  0  0  0  0  0  0
   28.1550   63.9945   12.9715 C   0  0  0  0  0  0  0  0  0  0  0  0
   28.2315   63.9844   14.4365 N   0  0  0  0  0  0  0  0  0  0  0  0
   27.5783   62.8714   12.4822 O   0  0  0  0  0  0  0  0  0  0  0  0
  1  2  2  0
  3  2  1  6
  3  4  1  0
  2  5  1  0
  3  6  1  0
  6  7  1  6
  7  8  1  0
  8  9  1  0
  6 10  1  0
  9 10  1  0
  4 11  1  0
 10 12  1  0
 11 12  1  0
 12 13  1  1
 13 14  1  0
 14 15  1  0
 15 16  1  0
 15 17  2  0
M  END
$$$$
42
     RDKit          3D

 18 19  0  0  0  0  0  0  0  0999 V2000
   33.7491   66.3717    7.4496 O   0  0  0  0  0  0  0  0  0  0  0  0
   32.6093   66.5128    8.1282 C   0  0  2  0  0  0  0  0  0  0  0  0
   32.4578   65.9297    9.3762 C   0  0  0  0  0  0  0  0  0  0  0  0
   31.2166   65.9523    9.9679 N   0  0  0  0  0  0  0  0  0  0  0  0
   31.4302   66.5239    7.2654 C   0  0  1  0  0  0  0  0  0  0  0  0
   30.2079   66.0778    9.1021 C   0  0  1  0  0  0  0  0  0  0  0  0
   28.9211   66.0016    9.8025 C   0  0  2  0  0  0  0  0  0  0  0  0
   30.1805   66.6746    7.8355 C   0  0  2  0  0  0  0  0  0  0  0  0
   28.9659   66.9182    7.1712 C   0  0  0  0  0  0  0  0  0  0  0  0
   31.5483   66.8939    5.9202 O   0  0  0  0  0  0  0  0  0  0  0  0
   28.8259   65.4748   11.1578 C   0  0  0  0  0  0  0  0  0  0  0  0
   27.6899   66.3076    9.1388 C   0  0  0  0  0  0  0  0  0  0  0  0
   27.7683   66.7057    7.8312 C   0  0  0  0  0  0  0  0  0  0  0  0
   28.0107   64.6426   11.5943 N   0  0  0  0  0  0  0  0  0  0  0  0
   29.6977   65.9326   12.1065 O   0  0  0  0  0  0  0  0  0  0  0  0
   27.9658   63.9667   12.9073 C   0  0  0  0  0  0  0  0  0  0  0  0
   27.6252   62.6611   12.9862 O   0  0  0  0  0  0  0  0  0  0  0  0
   28.4011   64.4519   13.9788 O   0  0  0  0  0  0  0  0  0  0  0  0
  2  1  1  6
  2  3  1  0
  3  4  1  0
  2  5  1  0
  6  4  1  1
  6  7  1  0
  5  8  1  0
  6  8  1  0
  8  9  1  6
  5 10  1  6
  7 11  1  6
  7 12  1  0
  9 13  1  0
 12 13  1  0
 11 14  1  0
 11 15  2  0
 14 16  1  0
 16 17  1  0
 16 18  2  0
M  END
$$$$
43
     RDKit          3D

 18 19  0  0  0  0  0  0  0  0999 V2000
   33.4806   66.0184    6.9440 O   0  0  0  0  0  0  0  0  0  0  0  0
   32.4302   66.8734    7.2195 C   0  0  1  0  0  0  0  0  0  0  0  0
   31.7933   67.3288    6.1072 C   0  0  0  0  0  0  0  0  0  0  0  0
   30.2882   67.0145    6.3196 C   0  0  0  0  0  0  0  0  0  0  0  0
   31.6157   66.2626    8.3424 C   0  0  2  0  0  0  0  0  0  0  0  0
   30.2260   66.4056    7.7430 C   0  0  2  0  0  0  0  0  0  0  0  0
   31.7804   66.7444    9.7064 C   0  0  0  0  0  0  0  0  0  0  0  0
   32.9622   65.9377   10.3306 N   0  0  0  0  0  0  0  0  0  0  0  0
   29.1621   67.0949    5.6653 C   0  0  0  0  0  0  0  0  0  0  0  0
   29.1150   65.5191    7.8790 C   0  0  1  0  0  0  0  0  0  0  0  0
   28.6455   65.2737    9.2453 O   0  0  0  0  0  0  0  0  0  0  0  0
   29.1524   64.9692   10.2413 C   0  0  0  0  0  0  0  0  0  0  0  0
   28.1193   66.5835    6.5362 C   0  0  0  0  0  0  0  0  0  0  0  0
   28.3526   64.5806   11.2774 C   0  0  1  0  0  0  0  0  0  0  0  0
   29.0918   64.5362   12.5631 C   0  0  0  0  0  0  0  0  0  0  0  0
   27.1731   65.3641   11.5077 O   0  0  0  0  0  0  0  0  0  0  0  0
   27.8557   65.7105    7.3000 C   0  0  0  0  0  0  0  0  0  0  0  0
   28.4980   63.7257   13.6090 N   0  0  0  0  0  0  0  0  0  0  0  0
  2  1  1  6
  2  3  1  0
  3  4  1  0
  2  5  1  0
  6  4  1  6
  5  6  1  0
  5  7  1  1
  7  8  1  0
  4  9  1  0
  6 10  1  0
 10 11  1  1
 11 12  1  0
  9 13  1  0
 12 14  1  0
 14 15  1  0
 14 16  1  1
 10 17  1  0
 13 17  2  0
 15 18  1  0
M  END
$$$$
44
     RDKit          3D

 18 18  0  0  0  0  0  0  0  0999 V2000
   32.7927   65.3669   10.0780 O   0  0  0  0  0  0  0  0  0  0  0  0
   31.9982   66.1379    9.3879 C   0  0  1  0  0  0  0  0  0  0  0  0
   32.5022   66.4596    8.0288 C   0  0  2  0  0  0  0  0  0  0  0  0
   30.6999   65.3500    9.3677 C   0  0  1  0  0  0  0  0  0  0  0  0
   33.8084   66.7124    7.7653 O   0  0  0  0  0  0  0  0  0  0  0  0
   29.9792   65.4181   10.5324 N   0  0  0  0  0  0  0  0  0  0  0  0
   29.9612   65.7207    8.1500 O   0  0  0  0  0  0  0  0  0  0  0  0
   31.4129   67.3957    7.3823 C   0  0  2  0  0  0  0  0  0  0  0  0
   28.7675   64.7698   10.7943 C   0  0  0  0  0  0  0  0  0  0  0  0
   30.3398   66.4447    7.1875 C   0  0  1  0  0  0  0  0  0  0  0  0
   30.4104   65.5224    6.0695 C   0  0  0  0  0  0  0  0  0  0  0  0
   31.8767   67.9585    6.1488 O   0  0  0  0  0  0  0  0  0  0  0  0
   29.4792   64.4862    6.1144 O   0  0  0  0  0  0  0  0  0  0  0  0
   28.3265   64.9063   12.2026 C   0  0  1  0  0  0  0  0  0  0  0  0
   28.6082   63.6814   12.9874 C   0  0  0  0  0  0  0  0  0  0  0  0
   29.0425   66.0755   12.8775 C   0  0  0  0  0  0  0  0  0  0  0  0
   27.6440   62.6315   12.6056 N   0  0  0  0  0  0  0  0  0  0  0  0
   28.4681   63.8281   14.3971 N   0  0  0  0  0  0  0  0  0  0  0  0
  2  1  1  1
  2  3  1  0
  2  4  1  0
  3  5  1  1
  4  6  1  1
  4  7  1  0
  3  8  1  0
  6  9  1  0
  7 10  1  0
  8 10  1  0
 10 11  1  6
  8 12  1  6
 11 13  1  0
  9 14  1  0
 14 15  1  0
 14 16  1  1
 15 17  1  0
 15 18  1  0
M  END
$$$$
45
     RDKit          3D

 18 20  0  0  0  0  0  0  0  0999 V2000
   32.3157   67.4065    6.0998 O   0  0  0  0  0  0  0  0  0  0  0  0
   32.4451   66.7940    7.2605 C   0  0  0  0  0  0  0  0  0  0  0  0
   31.3248   66.5025    8.0277 C   0  0  2  0  0  0  0  0  0  0  0  0
   31.4567   66.1752    9.3383 C   0  0  0  0  0  0  0  0  0  0  0  0
   33.7369   66.4078    7.4964 N   0  0  0  0  0  0  0  0  0  0  0  0
   30.3442   65.6111    7.4060 C   0  0  2  0  0  0  0  0  0  0  0  0
   29.5081   66.2988    6.3469 C   0  0  0  0  0  0  0  0  0  0  0  0
   28.3037   66.4804    6.9116 C   0  0  0  0  0  0  0  0  0  0  0  0
   28.0130   66.1061    8.2053 C   0  0  0  0  0  0  0  0  0  0  0  0
   32.7130   65.7601    9.7965 N   0  0  0  0  0  0  0  0  0  0  0  0
   29.2463   65.6194    8.7827 C   0  0  2  0  0  0  0  0  0  0  0  0
   30.0589   66.0870    9.8552 C   0  0  1  0  0  0  0  0  0  0  0  0
   33.8137   65.8504    8.9163 C   0  0  0  0  0  0  0  0  0  0  0  0
   30.0449   65.2501   11.1359 N   0  0  0  0  0  0  0  0  0  0  0  0
   28.8351   65.0010   11.7433 C   0  0  0  0  0  0  0  0  0  0  0  0
   28.8899   64.2610   12.8974 C   0  0  0  0  0  0  0  0  0  0  0  0
   29.3612   64.9638   13.8996 N   0  0  0  0  0  0  0  0  0  0  0  0
   28.3519   63.0648   13.0207 C   0  0  0  0  0  0  0  0  0  0  0  0
  1  2  2  0
  3  2  1  6
  3  4  1  0
  2  5  1  0
  3  6  1  0
  6  7  1  6
  7  8  1  0
  8  9  1  0
  4 10  2  0
  6 11  1  0
 11  9  1  6
  4 12  1  0
 11 12  1  0
  5 13  1  0
 10 13  1  0
 12 14  1  1
 14 15  1  0
 15 16  1  0
 16 17  1  0
 16 18  2  0
M  END
$$$$
46
     RDKit          3D

 18 19  0  0  0  0  0  0  0  0999 V2000
   33.7491   66.3717    7.4496 O   0  0  0  0  0  0  0  0  0  0  0  0
   32.6093   66.5128    8.1282 C   0  0  2  0  0  0  0  0  0  0  0  0
   32.4578   65.9297    9.3762 C   0  0  0  0  0  0  0  0  0  0  0  0
   31.2166   65.9523    9.9679 N   0  0  0  0  0  0  0  0  0  0  0  0
   31.4302   66.5239    7.2654 C   0  0  1  0  0  0  0  0  0  0  0  0
   30.2079   66.0778    9.1021 C   0  0  1  0  0  0  0  0  0  0  0  0
   28.9211   66.0016    9.8025 C   0  0  2  0  0  0  0  0  0  0  0  0
   30.1805   66.6746    7.8355 C   0  0  2  0  0  0  0  0  0  0  0  0
   28.9659   66.9182    7.1712 C   0  0  0  0  0  0  0  0  0  0  0  0
   31.5483   66.8939    5.9202 O   0  0  0  0  0  0  0  0  0  0  0  0
   28.8259   65.4748   11.1578 C   0  0  0  0  0  0  0  0  0  0  0  0
   27.6899   66.3076    9.1388 C   0  0  0  0  0  0  0  0  0  0  0  0
   27.7683   66.7057    7.8312 C   0  0  0  0  0  0  0  0  0  0  0  0
   28.0107   64.6426   11.5943 N   0  0  0  0  0  0  0  0  0  0  0  0
   29.6977   65.9326   12.1065 O   0  0  0  0  0  0  0  0  0  0  0  0
   27.9658   63.9667   12.9073 C   0  0  0  0  0  0  0  0  0  0  0  0
   27.6252   62.6611   12.9862 C   0  0  0  0  0  0  0  0  0  0  0  0
   28.5330   64.5007   14.0459 N   0  0  0  0  0  0  0  0  0  0  0  0
  2  1  1  6
  2  3  1  0
  3  4  1  0
  2  5  1  0
  6  4  1  1
  6  7  1  0
  5  8  1  0
  6  8  1  0
  8  9  1  6
  5 10  1  6
  7 11  1  6
  7 12  1  0
  9 13  1  0
 12 13  1  0
 11 14  1  0
 11 15  2  0
 14 16  1  0
 16 17  2  0
 16 18  1  0
M  END
$$$$
47
     RDKit          3D

 18 20  0  0  0  0  0  0  0  0999 V2000
   33.6942   66.2004    7.3852 O   0  0  0  0  0  0  0  0  0  0  0  0
   32.5292   66.8086    7.4600 C   0  0  2  0  0  0  0  0  0  0  0  0
   31.6837   66.1778    8.4615 C   0  0  1  0  0  0  0  0  0  0  0  0
   31.7955   66.7485    6.1941 C   0  0  0  0  0  0  0  0  0  0  0  0
   32.2235   66.1947    9.7870 N   0  0  0  0  0  0  0  0  0  0  0  0
   30.3208   66.7341    8.4655 C   0  0  1  0  0  0  0  0  0  0  0  0
   30.3800   67.1925    6.3255 N   0  0  0  0  0  0  0  0  0  0  0  0
   29.6346   66.4547    7.1916 C   0  0  0  0  0  0  0  0  0  0  0  0
   29.5258   65.9124    9.5844 C   0  0  0  0  0  0  0  0  0  0  0  0
   28.2504   66.4017    9.7391 O   0  0  0  0  0  0  0  0  0  0  0  0
   30.0821   65.4616   10.6896 N   0  0  0  0  0  0  0  0  0  0  0  0
   27.4030   65.9803   10.6492 C   0  0  1  0  0  0  0  0  0  0  0  0
   26.4252   66.9048   10.9102 C   0  0  0  0  0  0  0  0  0  0  0  0
   26.6943   64.7563   10.1580 C   0  0  0  0  0  0  0  0  0  0  0  0
   25.3949   66.3670   11.8481 C   0  0  0  0  0  0  0  0  0  0  0  0
   24.7523   65.1661   11.3236 C   0  0  0  0  0  0  0  0  0  0  0  0
   25.6831   64.1592   10.8949 N   0  0  0  0  0  0  0  0  0  0  0  0
   31.6623   65.2257   10.6792 C   0  0  0  0  0  0  0  0  0  0  0  0
  2  1  1  6
  2  3  1  0
  2  4  1  0
  3  5  1  1
  3  6  1  0
  4  7  1  0
  6  8  1  6
  7  8  1  0
  6  9  1  0
  9 10  1  0
  9 11  2  0
 12 10  1  6
 12 13  1  0
 12 14  1  0
 13 15  1  0
 15 16  1  0
 14 17  1  0
 16 17  1  0
  5 18  1  0
 11 18  1  0
M  END
$$$$
48
     RDKit          3D

 18 19  0  0  0  0  0  0  0  0999 V2000
   32.1120   67.3066    6.2523 C   0  0  1  0  0  0  0  0  0  0  0  0
   32.8809   66.7380    7.2754 C   0  0  2  0  0  0  0  0  0  0  0  0
   32.2096   66.4572    8.4842 C   0  0  1  0  0  0  0  0  0  0  0  0
   34.2563   66.6580    7.2717 O   0  0  0  0  0  0  0  0  0  0  0  0
   30.8168   66.3543    8.5671 C   0  0  2  0  0  0  0  0  0  0  0  0
   30.0225   66.7576    7.4271 C   0  0  1  0  0  0  0  0  0  0  0  0
   33.0704   66.0275    9.6383 N   0  0  0  0  0  0  0  0  0  0  0  0
   30.2151   65.8746    9.9136 C   0  0  0  0  0  0  0  0  0  0  0  0
   28.9294   65.8878    9.9464 C   0  0  2  0  0  0  0  0  0  0  0  0
   32.7226   67.6978    5.1337 F   0  0  0  0  0  0  0  0  0  0  0  0
   28.0193   66.2991    8.8389 C   0  0  0  0  0  0  0  0  0  0  0  0
   28.5439   65.6769   11.4193 C   0  0  0  0  0  0  0  0  0  0  0  0
   28.6101   66.7010    7.6608 C   0  0  0  0  0  0  0  0  0  0  0  0
   30.6834   67.3494    6.3034 C   0  0  0  0  0  0  0  0  0  0  0  0
   29.1319   64.6657   12.1392 C   0  0  0  0  0  0  0  0  0  0  0  0
   28.3120   63.5711   12.5440 C   0  0  0  0  0  0  0  0  0  0  0  0
   28.4747   63.0525   13.8184 O   0  0  0  0  0  0  0  0  0  0  0  0
   27.7510   62.7141   11.7157 O   0  0  0  0  0  0  0  0  0  0  0  0
  1  2  1  0
  2  3  1  0
  2  4  1  1
  3  5  1  0
  5  6  1  0
  3  7  1  6
  5  8  1  1
  8  9  1  0
  1 10  1  6
  9 11  1  0
  9 12  1  1
  6 13  1  1
 11 13  1  0
  1 14  1  0
  6 14  1  0
 12 15  1  0
 15 16  1  0
 16 17  1  0
 16 18  2  0
M  END
$$$$
49
     RDKit          3D

 18 20  0  0  0  0  0  0  0  0999 V2000
   31.6879   67.5931    5.9647 O   0  0  0  0  0  0  0  0  0  0  0  0
   31.2485   66.7073    6.8918 C   0  0  2  0  0  0  0  0  0  0  0  0
   29.9332   66.4170    7.0830 C   0  0  1  0  0  0  0  0  0  0  0  0
   29.3751   66.4312    8.3447 C   0  0  1  0  0  0  0  0  0  0  0  0
   29.0043   66.3731    6.0214 C   0  0  0  0  0  0  0  0  0  0  0  0
   32.0077   66.9854    8.2389 C   0  0  2  0  0  0  0  0  0  0  0  0
   27.9991   66.1171    8.6071 C   0  0  1  0  0  0  0  0  0  0  0  0
   30.3782   66.6449    9.5242 C   0  0  2  0  0  0  0  0  0  0  0  0
   33.5161   66.6894    7.9629 N   0  0  0  0  0  0  0  0  0  0  0  0
   31.7118   66.2066    9.4019 C   0  0  2  0  0  0  0  0  0  0  0  0
   32.5848   66.4476   10.4370 O   0  0  0  0  0  0  0  0  0  0  0  0
   27.1840   66.0529    7.5259 C   0  0  2  0  0  0  0  0  0  0  0  0
   25.8235   65.8058    7.6826 O   0  0  0  0  0  0  0  0  0  0  0  0
   33.8690   66.1500    6.7593 O   0  0  0  0  0  0  0  0  0  0  0  0
   27.7148   66.1466    6.2775 C   0  0  0  0  0  0  0  0  0  0  0  0
   29.6318   65.9432   10.7431 C   0  0  0  0  0  0  0  0  0  0  0  0
   28.1739   66.0261   10.8050 C   0  0  0  0  0  0  0  0  0  0  0  0
   27.5516   65.5270    9.7238 N   0  0  0  0  0  0  0  0  0  0  0  0
  2  1  1  6
  2  3  1  0
  4  3  1  6
  3  5  1  6
  2  6  1  0
  4  7  1  0
  4  8  1  0
  6  9  1  6
  6 10  1  0
  8 10  1  0
 10 11  1  1
  7 12  1  0
 12 13  1  6
  9 14  1  0
  5 15  1  0
 12 15  1  0
  8 16  1  1
 16 17  1  0
  7 18  1  6
 17 18  1  0
M  END
$$$$
5
     RDKit          3D

 13 14  0  0  0  0  0  0  0  0999 V2000
   28.8153   67.4298    6.4406 C   0  0  0  0  0  0  0  0  0  0  0  0
   27.9851   66.6153    7.1638 C   0  0  0  0  0  0  0  0  0  0  0  0
   30.2124   67.0477    6.5837 C   0  0  0  0  0  0  0  0  0  0  0  0
   26.6021   66.6607    7.2050 O   0  0  0  0  0  0  0  0  0  0  0  0
   28.4690   65.5825    8.0767 C   0  0  0  0  0  0  0  0  0  0  0  0
   29.8322   65.4290    8.2957 N   0  0  0  0  0  0  0  0  0  0  0  0
   30.7087   66.1571    7.5118 C   0  0  2  0  0  0  0  0  0  0  0  0
   30.1496   64.6944    9.4780 C   0  0  0  0  0  0  0  0  0  0  0  0
   31.2162   65.4321   10.2540 C   0  0  0  0  0  0  0  0  0  0  0  0
   31.9437   66.6487    8.3162 C   0  0  1  0  0  0  0  0  0  0  0  0
   32.2591   65.7084    9.4922 N   0  0  0  0  0  0  0  0  0  0  0  0
   33.1562   66.7255    7.4218 C   0  0  0  0  0  0  0  0  0  0  0  0
   34.1846   66.3535    7.7893 O   0  0  0  0  0  0  0  0  0  0  0  0
  1  2  1  0
  1  3  1  0
  2  4  1  0
  2  5  1  0
  5  6  1  0
  7  3  1  1
  6  7  1  0
  6  8  1  0
  8  9  1  0
  7 10  1  0
  9 11  1  0
 10 11  1  0
 10 12  1  6
 12 13  1  0
M  END
$$$$
50
     RDKit          3D

 18 20  0  0  0  0  0  0  0  0999 V2000
   25.7378   65.3272    7.6438 C   0  0  0  0  0  0  0  0  0  0  0  0
   26.7717   66.1068    8.1076 C   0  0  0  0  0  0  0  0  0  0  0  0
   25.0271   64.6489    8.3685 C   0  0  1  0  0  0  0  0  0  0  0  0
   27.1466   65.9761    9.4486 C   0  0  2  0  0  0  0  0  0  0  0  0
   25.1735   64.5539    9.7299 C   0  0  0  0  0  0  0  0  0  0  0  0
   23.9063   63.9496    7.7321 O   0  0  0  0  0  0  0  0  0  0  0  0
   26.2405   65.2464   10.2777 C   0  0  1  0  0  0  0  0  0  0  0  0
   26.6102   65.0835   11.7119 C   0  0  0  0  0  0  0  0  0  0  0  0
   28.2966   66.8055   10.0423 C   0  0  0  0  0  0  0  0  0  0  0  0
   28.4538   66.7492   11.3594 C   0  0  0  0  0  0  0  0  0  0  0  0
   27.6651   65.9462   12.2128 C   0  0  0  0  0  0  0  0  0  0  0  0
   27.8798   65.9997   13.8623 C   0  0  1  0  0  0  0  0  0  0  0  0
   28.9569   65.1716   14.1461 N   0  0  0  0  0  0  0  0  0  0  0  0
   27.9597   67.2155   14.3940 C   0  0  0  0  0  0  0  0  0  0  0  0
   27.1328   68.1622   14.0694 O   0  0  0  0  0  0  0  0  0  0  0  0
   29.1046   67.5842   15.1228 N   0  0  0  0  0  0  0  0  0  0  0  0
   29.6311   65.4310   15.3450 N   0  0  0  0  0  0  0  0  0  0  0  0
   29.8879   66.6950   15.6512 C   0  0  0  0  0  0  0  0  0  0  0  0
  1  2  1  0
  1  3  1  0
  4  2  1  1
  3  5  1  0
  3  6  1  1
  4  7  1  0
  7  5  1  6
  7  8  1  0
  4  9  1  0
  9 10  1  0
  8 11  1  0
 10 11  1  0
 12 11  1  6
 12 13  1  0
 12 14  1  0
 14 15  2  0
 14 16  1  0
 13 17  1  0
 16 18  1  0
 17 18  1  0
M  END
$$$$
51
     RDKit          3D

 18 19  0  0  0  0  0  0  0  0999 V2000
   33.4806   66.0184    6.9440 O   0  0  0  0  0  0  0  0  0  0  0  0
   32.4302   66.8734    7.2195 C   0  0  1  0  0  0  0  0  0  0  0  0
   31.7933   67.3288    6.1072 C   0  0  0  0  0  0  0  0  0  0  0  0
   30.2882   67.0145    6.3196 C   0  0  0  0  0  0  0  0  0  0  0  0
   31.6157   66.2626    8.3424 C   0  0  2  0  0  0  0  0  0  0  0  0
   30.2260   66.4056    7.7430 C   0  0  2  0  0  0  0  0  0  0  0  0
   31.7804   66.7444    9.7064 C   0  0  0  0  0  0  0  0  0  0  0  0
   32.9622   65.9377   10.3306 N   0  0  0  0  0  0  0  0  0  0  0  0
   29.1621   67.0949    5.6653 C   0  0  0  0  0  0  0  0  0  0  0  0
   29.1150   65.5191    7.8790 C   0  0  1  0  0  0  0  0  0  0  0  0
   28.6455   65.2737    9.2453 O   0  0  0  0  0  0  0  0  0  0  0  0
   29.1524   64.9692   10.2413 C   0  0  0  0  0  0  0  0  0  0  0  0
   28.1193   66.5835    6.5362 C   0  0  0  0  0  0  0  0  0  0  0  0
   28.3526   64.5806   11.2774 C   0  0  1  0  0  0  0  0  0  0  0  0
   28.0107   66.0787    7.4237 C   0  0  0  0  0  0  0  0  0  0  0  0
   29.0159   64.4559   12.6099 C   0  0  0  0  0  0  0  0  0  0  0  0
   27.1216   65.3101   11.5237 O   0  0  0  0  0  0  0  0  0  0  0  0
   28.4517   63.4422   13.3996 N   0  0  0  0  0  0  0  0  0  0  0  0
  2  1  1  6
  2  3  1  0
  3  4  1  0
  2  5  1  0
  6  4  1  6
  5  6  1  0
  5  7  1  1
  7  8  1  0
  4  9  1  0
  6 10  1  0
 10 11  1  1
 11 12  1  0
  9 13  1  0
 12 14  1  0
 10 15  1  0
 13 15  1  0
 14 16  1  0
 14 17  1  1
 16 18  1  0
M  END
$$$$
52
     RDKit          3D

 18 19  0  0  0  0  0  0  0  0999 V2000
   32.2259   67.2337    6.6502 C   0  0  0  0  0  0  0  0  0  0  0  0
   32.9913   66.6732    7.6368 C   0  0  0  0  0  0  0  0  0  0  0  0
   31.0070   66.5835    6.8402 C   0  0  0  0  0  0  0  0  0  0  0  0
   34.3428   66.7448    7.5396 O   0  0  0  0  0  0  0  0  0  0  0  0
   32.5760   66.0438    8.8368 C   0  0  0  0  0  0  0  0  0  0  0  0
   31.2428   65.7688    8.9988 C   0  0  0  0  0  0  0  0  0  0  0  0
   30.3595   66.1644    7.9255 C   0  0  2  0  0  0  0  0  0  0  0  0
   28.9261   65.7523    8.0668 C   0  0  2  0  0  0  0  0  0  0  0  0
   28.1607   66.1106    6.9575 C   0  0  0  0  0  0  0  0  0  0  0  0
   28.3259   66.5373    9.2497 N   0  0  0  0  0  0  0  0  0  0  0  0
   30.8459   65.1262   10.1780 N   0  0  0  0  0  0  0  0  0  0  0  0
   27.0663   66.1656    9.5780 C   0  0  0  0  0  0  0  0  0  0  0  0
   26.1324   66.2404    8.5036 C   0  0  2  0  0  0  0  0  0  0  0  0
   33.6926   65.7743    9.7603 O   0  0  0  0  0  0  0  0  0  0  0  0
   24.8225   65.6749    8.7987 C   0  0  0  0  0  0  0  0  0  0  0  0
   26.6261   65.8424    7.1940 C   0  0  0  0  0  0  0  0  0  0  0  0
   24.8588   64.4904    9.4688 O   0  0  0  0  0  0  0  0  0  0  0  0
   23.7446   66.1829    8.5740 O   0  0  0  0  0  0  0  0  0  0  0  0
  1  2  1  0
  1  3  1  0
  2  4  1  0
  2  5  1  0
  5  6  1  0
  7  3  1  6
  6  7  1  0
  7  8  1  0
  8  9  1  6
  8 10  1  0
  6 11  1  0
 10 12  1  0
 12 13  1  0
  5 14  1  0
 13 15  1  1
  9 16  1  0
 13 16  1  0
 15 17  1  0
 15 18  2  0
M  END
$$$$
53
     RDKit          3D

 18 18  0  0  0  0  0  0  0  0999 V2000
   31.8855   67.5502    6.0072 O   0  0  0  0  0  0  0  0  0  0  0  0
   31.4276   66.6777    6.9140 C   0  0  2  0  0  0  0  0  0  0  0  0
   30.0670   66.5588    7.1794 C   0  0  1  0  0  0  0  0  0  0  0  0
   32.4118   66.3903    7.9567 C   0  0  1  0  0  0  0  0  0  0  0  0
   29.0800   66.8566    6.1230 C   0  0  0  0  0  0  0  0  0  0  0  0
   29.8014   65.8209    8.2790 O   0  0  0  0  0  0  0  0  0  0  0  0
   27.7160   66.6046    6.7278 O   0  0  0  0  0  0  0  0  0  0  0  0
   33.7789   66.5582    7.7248 O   0  0  0  0  0  0  0  0  0  0  0  0
   32.1034   66.1778    9.2051 C   0  0  1  0  0  0  0  0  0  0  0  0
   30.6761   65.8450    9.4315 C   0  0  2  0  0  0  0  0  0  0  0  0
   32.9529   65.3391    9.9141 O   0  0  0  0  0  0  0  0  0  0  0  0
   30.1894   65.4696   10.6485 N   0  0  0  0  0  0  0  0  0  0  0  0
   29.5147   66.1835   11.5222 C   0  0  0  0  0  0  0  0  0  0  0  0
   29.0543   65.5922   12.7676 C   0  0  1  0  0  0  0  0  0  0  0  0
   28.9896   64.2047   12.7673 C   0  0  0  0  0  0  0  0  0  0  0  0
   30.0705   66.0173   13.7671 O   0  0  0  0  0  0  0  0  0  0  0  0
   28.8444   63.5462   13.9686 O   0  0  0  0  0  0  0  0  0  0  0  0
   28.2411   63.5788   11.7367 O   0  0  0  0  0  0  0  0  0  0  0  0
  2  1  1  1
  2  3  1  0
  2  4  1  0
  3  5  1  6
  3  6  1  0
  5  7  1  0
  4  8  1  1
  4  9  1  0
  6 10  1  0
  9 10  1  0
  9 11  1  6
 10 12  1  6
 12 13  1  0
 13 14  1  0
 14 15  1  0
 14 16  1  1
 15 17  1  0
 15 18  2  0
M  END
$$$$
54
     RDKit          3D

 18 20  0  0  0  0  0  0  0  0999 V2000
   32.1120   67.3066    6.2523 C   0  0  0  0  0  0  0  0  0  0  0  0
   30.7530   66.9210    6.5585 C   0  0  0  0  0  0  0  0  0  0  0  0
   29.8768   66.6102    5.6942 O   0  0  0  0  0  0  0  0  0  0  0  0
   30.2733   67.1864    7.8988 C   0  0  1  0  0  0  0  0  0  0  0  0
   32.9689   66.5616    7.0288 N   0  0  0  0  0  0  0  0  0  0  0  0
   32.6699   66.6538    8.5263 C   0  0  1  0  0  0  0  0  0  0  0  0
   28.9080   66.6702    8.1911 N   0  0  0  0  0  0  0  0  0  0  0  0
   31.1298   66.1924    8.8132 C   0  0  2  0  0  0  0  0  0  0  0  0
   33.4397   65.6936    9.4425 N   0  0  0  0  0  0  0  0  0  0  0  0
   28.6221   65.4767    8.7155 C   0  0  0  0  0  0  0  0  0  0  0  0
   31.0178   64.8947    8.7405 O   0  0  0  0  0  0  0  0  0  0  0  0
   29.8062   64.7370    9.2224 C   0  0  0  0  0  0  0  0  0  0  0  0
   27.2254   64.9754    8.7600 C   0  0  0  0  0  0  0  0  0  0  0  0
   26.4229   65.5347    7.8547 C   0  0  0  0  0  0  0  0  0  0  0  0
   26.7521   64.2645    9.8598 C   0  0  0  0  0  0  0  0  0  0  0  0
   24.9955   65.3873    8.0687 C   0  0  0  0  0  0  0  0  0  0  0  0
   25.4058   63.8839    9.9007 C   0  0  0  0  0  0  0  0  0  0  0  0
   24.5558   64.3965    8.9520 C   0  0  0  0  0  0  0  0  0  0  0  0
  1  2  1  0
  2  3  2  0
  2  4  1  0
  1  5  1  0
  5  6  1  0
  4  7  1  6
  4  8  1  0
  6  8  1  0
  6  9  1  1
  7 10  1  0
  8 11  1  6
 10 12  2  0
 11 12  1  0
 10 13  1  0
 13 14  2  0
 13 15  1  0
 14 16  1  0
 15 17  1  0
 16 18  2  0
 17 18  1  0
M  END
$$$$
55
     RDKit          3D

 18 20  0  0  0  0  0  0  0  0999 V2000
   32.1120   67.3066    6.2523 C   0  0  0  0  0  0  0  0  0  0  0  0
   30.7530   66.9210    6.5585 C   0  0  0  0  0  0  0  0  0  0  0  0
   29.8768   66.6102    5.6942 O   0  0  0  0  0  0  0  0  0  0  0  0
   30.2733   67.1864    7.8988 C   0  0  1  0  0  0  0  0  0  0  0  0
   32.9689   66.5616    7.0288 N   0  0  0  0  0  0  0  0  0  0  0  0
   32.6699   66.6538    8.5263 C   0  0  1  0  0  0  0  0  0  0  0  0
   28.9080   66.6702    8.1911 N   0  0  0  0  0  0  0  0  0  0  0  0
   31.1298   66.1924    8.8132 C   0  0  2  0  0  0  0  0  0  0  0  0
   33.4397   65.6936    9.4425 N   0  0  0  0  0  0  0  0  0  0  0  0
   28.6221   65.4767    8.7155 C   0  0  2  0  0  0  0  0  0  0  0  0
   31.0178   64.8947    8.7405 O   0  0  0  0  0  0  0  0  0  0  0  0
   27.3298   65.3132    9.3446 C   0  0  2  0  0  0  0  0  0  0  0  0
   29.7152   64.9911    9.7038 C   0  0  0  0  0  0  0  0  0  0  0  0
   27.0270   64.2349    9.9914 O   0  0  0  0  0  0  0  0  0  0  0  0
   26.1441   65.7143    8.5629 C   0  0  0  0  0  0  0  0  0  0  0  0
   24.9294   65.4889    9.0332 C   0  0  0  0  0  0  0  0  0  0  0  0
   24.8065   64.0641    9.5492 C   0  0  0  0  0  0  0  0  0  0  0  0
   25.8279   63.9332   10.5527 C   0  0  0  0  0  0  0  0  0  0  0  0
  1  2  1  0
  2  3  2  0
  2  4  1  0
  1  5  1  0
  5  6  1  0
  4  7  1  6
  4  8  1  0
  6  8  1  0
  6  9  1  1
  7 10  1  0
  8 11  1  6
 10 12  1  0
 10 13  1  1
 11 13  1  0
 12 14  1  0
 12 15  1  6
 15 16  1  0
 16 17  1  0
 14 18  1  0
 17 18  1  0
M  END
$$$$
56
     RDKit          3D

 18 20  0  0  0  0  0  0  0  0999 V2000
   25.7378   65.3272    7.6438 C   0  0  0  0  0  0  0  0  0  0  0  0
   26.7717   66.1068    8.1076 C   0  0  1  0  0  0  0  0  0  0  0  0
   25.0271   64.6489    8.3685 C   0  0  0  0  0  0  0  0  0  0  0  0
   25.1957   64.5473    9.7366 C   0  0  0  0  0  0  0  0  0  0  0  0
   26.2456   65.2980   10.2941 C   0  0  0  0  0  0  0  0  0  0  0  0
   27.0569   66.0838    9.4891 C   0  0  1  0  0  0  0  0  0  0  0  0
   28.2262   66.6451   10.0171 C   0  0  0  0  0  0  0  0  0  0  0  0
   29.5053   66.4149    9.4281 C   0  0  2  0  0  0  0  0  0  0  0  0
   30.6145   66.0615   10.2408 N   0  0  0  0  0  0  0  0  0  0  0  0
   31.6649   65.6227    9.8414 C   0  0  0  0  0  0  0  0  0  0  0  0
   29.8458   66.9108    8.1168 C   0  0  0  0  0  0  0  0  0  0  0  0
   28.8845   67.3992    7.2065 C   0  0  0  0  0  0  0  0  0  0  0  0
   31.2573   66.9463    7.7265 C   0  0  2  0  0  0  0  0  0  0  0  0
   31.6591   67.2039    6.3766 C   0  0  0  0  0  0  0  0  0  0  0  0
   32.1604   65.7950    8.3351 C   0  0  1  0  0  0  0  0  0  0  0  0
   27.6311   66.5687    7.1830 C   0  0  0  0  0  0  0  0  0  0  0  0
   33.5885   66.2713    8.2725 N   0  0  0  0  0  0  0  0  0  0  0  0
   34.1406   66.6275    7.3259 O   0  0  0  0  0  0  0  0  0  0  0  0
  2  1  1  6
  1  3  1  0
  3  4  1  0
  4  5  1  0
  2  6  1  0
  6  5  1  6
  6  7  1  0
  8  7  1  1
  8  9  1  0
  9 10  1  0
  8 11  1  0
 11 12  1  0
 11 13  1  0
 13 14  1  6
 10 15  1  0
 13 15  1  0
  2 16  1  0
 12 16  1  0
 15 17  1  1
 17 18  1  0
M  END
$$$$
57
     RDKit          3D

 18 20  0  0  0  0  0  0  0  0999 V2000
   32.3157   67.4065    6.0998 N   0  0  0  0  0  0  0  0  0  0  0  0
   32.5933   66.8479    7.2910 C   0  0  2  0  0  0  0  0  0  0  0  0
   33.8812   66.5925    7.5827 O   0  0  0  0  0  0  0  0  0  0  0  0
   31.5057   66.4826    8.1895 C   0  0  1  0  0  0  0  0  0  0  0  0
   30.8223   67.2638    5.9354 N   0  0  0  0  0  0  0  0  0  0  0  0
   30.2740   66.6775    6.9728 C   0  0  2  0  0  0  0  0  0  0  0  0
   31.4006   65.9049    9.4668 C   0  0  2  0  0  0  0  0  0  0  0  0
   28.9319   66.4824    7.5354 C   0  0  2  0  0  0  0  0  0  0  0  0
   27.9023   66.6528    6.6453 C   0  0  0  0  0  0  0  0  0  0  0  0
   32.3334   65.1317    9.6753 O   0  0  0  0  0  0  0  0  0  0  0  0
   28.6906   66.2077    8.9075 C   0  0  1  0  0  0  0  0  0  0  0  0
   29.9205   65.9152    9.7743 C   0  0  0  0  0  0  0  0  0  0  0  0
   27.4111   66.2499    9.4735 C   0  0  0  0  0  0  0  0  0  0  0  0
   26.3926   66.3852    8.5032 C   0  0  2  0  0  0  0  0  0  0  0  0
   25.0324   66.2693    9.0010 C   0  0  0  0  0  0  0  0  0  0  0  0
   26.6241   66.3031    7.1477 C   0  0  0  0  0  0  0  0  0  0  0  0
   24.4910   67.2941    9.4518 O   0  0  0  0  0  0  0  0  0  0  0  0
   24.2646   65.1711    8.9960 N   0  0  0  0  0  0  0  0  0  0  0  0
  1  2  1  0
  2  3  1  6
  4  2  1  6
  1  5  1  0
  4  6  1  0
  6  5  1  1
  4  7  1  0
  6  8  1  0
  8  9  1  1
  7 10  1  6
  8 11  1  0
  7 12  1  0
 11 12  1  1
 11 13  1  0
 13 14  1  0
 14 15  1  1
  9 16  1  0
 14 16  1  0
 15 17  2  0
 15 18  1  0
M  END
$$$$
58
     RDKit          3D

 18 20  0  0  0  0  0  0  0  0999 V2000
   25.7378   65.3272    7.6438 C   0  0  0  0  0  0  0  0  0  0  0  0
   26.7717   66.1068    8.1076 C   0  0  0  0  0  0  0  0  0  0  0  0
   25.0271   64.6489    8.3685 C   0  0  1  0  0  0  0  0  0  0  0  0
   27.1466   65.9761    9.4486 C   0  0  2  0  0  0  0  0  0  0  0  0
   25.1735   64.5539    9.7299 C   0  0  0  0  0  0  0  0  0  0  0  0
   23.9063   63.9496    7.7321 O   0  0  0  0  0  0  0  0  0  0  0  0
   26.2405   65.2464   10.2777 C   0  0  1  0  0  0  0  0  0  0  0  0
   26.6102   65.0835   11.7119 C   0  0  0  0  0  0  0  0  0  0  0  0
   28.2966   66.8055   10.0423 C   0  0  0  0  0  0  0  0  0  0  0  0
   28.4538   66.7492   11.3594 C   0  0  0  0  0  0  0  0  0  0  0  0
   27.6651   65.9462   12.2128 C   0  0  0  0  0  0  0  0  0  0  0  0
   29.5635   67.5877   11.9505 C   0  0  0  0  0  0  0  0  0  0  0  0
   27.8293   65.9515   13.7785 C   0  0  2  0  0  0  0  0  0  0  0  0
   28.9746   66.7415   14.1312 C   0  0  0  0  0  0  0  0  0  0  0  0
   27.8957   64.6834   14.3418 N   0  0  0  0  0  0  0  0  0  0  0  0
   29.6450   67.6456   13.3274 C   0  0  0  0  0  0  0  0  0  0  0  0
   28.2229   63.5358   13.7217 C   0  0  0  0  0  0  0  0  0  0  0  0
   26.6992   64.3614   15.2283 C   0  0  0  0  0  0  0  0  0  0  0  0
  1  2  1  0
  1  3  1  0
  4  2  1  1
  3  5  1  0
  3  6  1  1
  4  7  1  0
  7  5  1  6
  7  8  1  0
  4  9  1  0
  9 10  1  0
  8 11  1  0
 10 11  1  0
 10 12  1  0
 11 13  1  0
 13 14  1  0
 13 15  1  6
 12 16  1  0
 14 16  1  0
 15 17  1  0
 15 18  1  0
M  END
$$$$
59
     RDKit          3D

 19 19  0  0  0  0  0  0  0  0999 V2000
   31.8855   67.5502    6.0072 O   0  0  0  0  0  0  0  0  0  0  0  0
   31.4276   66.6777    6.9140 C   0  0  2  0  0  0  0  0  0  0  0  0
   30.0670   66.5588    7.1794 C   0  0  1  0  0  0  0  0  0  0  0  0
   32.4118   66.3903    7.9567 C   0  0  1  0  0  0  0  0  0  0  0  0
   29.0800   66.8566    6.1230 C   0  0  0  0  0  0  0  0  0  0  0  0
   29.8014   65.8209    8.2790 O   0  0  0  0  0  0  0  0  0  0  0  0
   27.7160   66.6046    6.7278 O   0  0  0  0  0  0  0  0  0  0  0  0
   33.7789   66.5582    7.7248 O   0  0  0  0  0  0  0  0  0  0  0  0
   32.1034   66.1778    9.2051 C   0  0  1  0  0  0  0  0  0  0  0  0
   30.6761   65.8450    9.4315 C   0  0  2  0  0  0  0  0  0  0  0  0
   32.9529   65.3391    9.9141 O   0  0  0  0  0  0  0  0  0  0  0  0
   30.1894   65.4696   10.6485 N   0  0  0  0  0  0  0  0  0  0  0  0
   29.5147   66.1835   11.5222 C   0  0  0  0  0  0  0  0  0  0  0  0
   29.0543   65.5922   12.7676 C   0  0  1  0  0  0  0  0  0  0  0  0
   28.9896   64.2047   12.7673 C   0  0  2  0  0  0  0  0  0  0  0  0
   27.7289   63.8348   12.6328 C   0  0  0  0  0  0  0  0  0  0  0  0
   29.9813   65.8549   13.9223 O   0  0  0  0  0  0  0  0  0  0  0  0
   27.2217   63.1972   13.6240 O   0  0  0  0  0  0  0  0  0  0  0  0
   29.7738   63.7096   13.7463 O   0  0  0  0  0  0  0  0  0  0  0  0
  2  1  1  1
  2  3  1  0
  2  4  1  0
  3  5  1  6
  3  6  1  0
  5  7  1  0
  4  8  1  1
  4  9  1  0
  6 10  1  0
  9 10  1  0
  9 11  1  6
 10 12  1  6
 12 13  1  0
 13 14  1  0
 14 15  1  0
 15 16  1  0
 14 17  1  1
 16 18  1  0
 15 19  1  1
M  END
$$$$
6
     RDKit          3D

 13 13  0  0  0  0  0  0  0  0999 V2000
   28.8153   67.4298    6.4406 C   0  0  0  0  0  0  0  0  0  0  0  0
   27.9851   66.6153    7.1638 C   0  0  0  0  0  0  0  0  0  0  0  0
   30.2124   67.0477    6.5837 C   0  0  1  0  0  0  0  0  0  0  0  0
   26.6021   66.6607    7.2050 O   0  0  0  0  0  0  0  0  0  0  0  0
   28.4690   65.5825    8.0767 C   0  0  0  0  0  0  0  0  0  0  0  0
   29.8322   65.4290    8.2957 N   0  0  0  0  0  0  0  0  0  0  0  0
   31.1843   67.7381    5.8838 O   0  0  0  0  0  0  0  0  0  0  0  0
   30.6950   66.1456    7.5276 C   0  0  1  0  0  0  0  0  0  0  0  0
   32.0205   65.8792    7.6327 C   0  0  2  0  0  0  0  0  0  0  0  0
   32.5253   65.6041    9.0386 C   0  0  0  0  0  0  0  0  0  0  0  0
   33.0930   66.3128    6.8582 N   0  0  0  0  0  0  0  0  0  0  0  0
   32.8151   64.6527    9.3779 O   0  0  0  0  0  0  0  0  0  0  0  0
   32.3842   66.6414   10.0624 O   0  0  0  0  0  0  0  0  0  0  0  0
  1  2  1  0
  1  3  1  0
  2  4  1  0
  2  5  1  0
  5  6  1  0
  3  7  1  1
  3  8  1  0
  8  6  1  6
  8  9  1  0
  9 10  1  0
  9 11  1  1
 10 12  2  0
 10 13  1  0
M  END
$$$$
60
     RDKit          3D

 19 21  0  0  0  0  0  0  0  0999 V2000
   32.6648   66.3154    6.3686 O   0  0  0  0  0  0  0  0  0  0  0  0
   32.2176   67.1752    7.3004 C   0  0  2  0  0  0  0  0  0  0  0  0
   31.6912   66.3235    8.4500 C   0  0  2  0  0  0  0  0  0  0  0  0
   31.0089   67.5899    6.6012 C   0  0  0  0  0  0  0  0  0  0  0  0
   29.8644   66.8676    6.9234 C   0  0  0  0  0  0  0  0  0  0  0  0
   32.4207   65.5461    9.2521 C   0  0  0  0  0  0  0  0  0  0  0  0
   30.2091   66.2202    8.1113 N   0  0  0  0  0  0  0  0  0  0  0  0
   29.2112   66.0429    9.1472 C   0  0  1  0  0  0  0  0  0  0  0  0
   33.4969   66.1927    9.7404 N   0  0  0  0  0  0  0  0  0  0  0  0
   29.5395   65.6662   10.4086 C   0  0  0  0  0  0  0  0  0  0  0  0
   28.3773   65.5634   11.3019 C   0  0  0  0  0  0  0  0  0  0  0  0
   27.9094   66.5095    8.8853 N   0  0  0  0  0  0  0  0  0  0  0  0
   27.5009   66.6856    7.5194 C   0  0  0  0  0  0  0  0  0  0  0  0
   28.5991   66.5315    6.5777 C   0  0  0  0  0  0  0  0  0  0  0  0
   27.1581   65.9871   10.9531 C   0  0  0  0  0  0  0  0  0  0  0  0
   26.8998   66.3699    9.6719 C   0  0  0  0  0  0  0  0  0  0  0  0
   28.6953   64.9217   12.6420 C   0  0  0  0  0  0  0  0  0  0  0  0
   28.4853   65.5158   13.6538 O   0  0  0  0  0  0  0  0  0  0  0  0
   29.2133   63.6666   12.7043 O   0  0  0  0  0  0  0  0  0  0  0  0
  2  1  1  6
  2  3  1  0
  2  4  1  0
  4  5  1  0
  3  6  1  6
  3  7  1  0
  5  7  1  0
  7  8  1  0
  6  9  1  0
  8 10  1  1
 10 11  1  0
  8 12  1  0
 12 13  1  0
  5 14  1  0
 13 14  1  0
 11 15  1  0
 12 16  1  0
 15 16  1  0
 11 17  1  0
 17 18  2  0
 17 19  1  0
M  END
$$$$
61
     RDKit          3D

 19 20  0  0  0  0  0  0  0  0999 V2000
   32.7927   65.3669   10.0780 O   0  0  0  0  0  0  0  0  0  0  0  0
   31.9982   66.1379    9.3879 C   0  0  2  0  0  0  0  0  0  0  0  0
   30.6326   65.6686    9.3290 C   0  0  1  0  0  0  0  0  0  0  0  0
   30.0921   65.4148   10.4925 N   0  0  0  0  0  0  0  0  0  0  0  0
   32.7624   66.7337    8.1938 C   0  0  2  0  0  0  0  0  0  0  0  0
   29.9755   65.7911    8.1192 O   0  0  0  0  0  0  0  0  0  0  0  0
   28.7735   65.5107   10.8412 C   0  0  0  0  0  0  0  0  0  0  0  0
   31.8200   66.8127    6.9946 C   0  0  0  0  0  0  0  0  0  0  0  0
   30.5147   66.3044    6.9850 C   0  0  2  0  0  0  0  0  0  0  0  0
   29.5503   66.3955    6.0000 C   0  0  0  0  0  0  0  0  0  0  0  0
   28.1685   65.8918    6.5017 O   0  0  0  0  0  0  0  0  0  0  0  0
   28.4049   65.1189   12.2332 C   0  0  1  0  0  0  0  0  0  0  0  0
   33.6853   65.9421    7.4711 O   0  0  0  0  0  0  0  0  0  0  0  0
   28.9678   63.7751   12.5697 C   0  0  0  0  0  0  0  0  0  0  0  0
   32.1487   67.5762    5.9308 O   0  0  0  0  0  0  0  0  0  0  0  0
   28.9774   66.0621   13.2063 C   0  0  0  0  0  0  0  0  0  0  0  0
   28.2254   63.2687   13.7298 N   0  0  0  0  0  0  0  0  0  0  0  0
   28.6781   65.6293   14.5681 C   0  0  0  0  0  0  0  0  0  0  0  0
   28.2202   64.2518   14.6199 N   0  0  0  0  0  0  0  0  0  0  0  0
  2  1  1  6
  2  3  1  0
  3  4  1  1
  2  5  1  0
  3  6  1  0
  4  7  1  0
  5  8  1  0
  6  9  1  0
  8  9  1  0
  9 10  1  1
 10 11  1  0
 12  7  1  6
  5 13  1  6
 12 14  1  0
  8 15  2  0
 12 16  1  0
 14 17  1  0
 16 18  1  0
 17 19  1  0
 18 19  1  0
M  END
$$$$
62
     RDKit          3D

 19 19  0  0  0  0  0  0  0  0999 V2000
   32.7927   65.3669   10.0780 O   0  0  0  0  0  0  0  0  0  0  0  0
   31.9982   66.1379    9.3879 C   0  0  1  0  0  0  0  0  0  0  0  0
   32.5022   66.4596    8.0288 C   0  0  2  0  0  0  0  0  0  0  0  0
   30.6999   65.3500    9.3677 C   0  0  1  0  0  0  0  0  0  0  0  0
   33.8084   66.7124    7.7653 O   0  0  0  0  0  0  0  0  0  0  0  0
   29.9792   65.4181   10.5324 N   0  0  0  0  0  0  0  0  0  0  0  0
   29.9612   65.7207    8.1500 O   0  0  0  0  0  0  0  0  0  0  0  0
   31.4129   67.3957    7.3823 C   0  0  2  0  0  0  0  0  0  0  0  0
   30.1921   66.5197    7.0977 C   0  0  1  0  0  0  0  0  0  0  0  0
   30.0688   65.5356    6.1382 C   0  0  0  0  0  0  0  0  0  0  0  0
   28.8043   64.7571   10.9047 C   0  0  1  0  0  0  0  0  0  0  0  0
   28.9046   64.8711    6.1619 O   0  0  0  0  0  0  0  0  0  0  0  0
   28.4778   64.9474   12.3337 C   0  0  1  0  0  0  0  0  0  0  0  0
   31.6009   68.0945    6.1501 O   0  0  0  0  0  0  0  0  0  0  0  0
   28.5493   63.7027   13.0898 C   0  0  0  0  0  0  0  0  0  0  0  0
   27.6240   62.8787   12.7339 O   0  0  0  0  0  0  0  0  0  0  0  0
   28.3939   63.9809   14.5153 O   0  0  0  0  0  0  0  0  0  0  0  0
   29.5383   65.7712   13.0327 O   0  0  0  0  0  0  0  0  0  0  0  0
   27.5706   65.1147   10.3242 O   0  0  0  0  0  0  0  0  0  0  0  0
  2  1  1  1
  2  3  1  0
  2  4  1  0
  3  5  1  1
  4  6  1  1
  4  7  1  0
  3  8  1  0
  7  9  1  0
  8  9  1  0
  9 10  1  6
  6 11  1  0
 10 12  1  0
 11 13  1  0
  8 14  1  6
 13 15  1  0
 15 16  1  0
 15 17  1  0
 13 18  1  1
 11 19  1  6
M  END
$$$$
63
     RDKit          3D

 19 20  0  0  0  0  0  0  0  0999 V2000
   32.7927   65.3669   10.0780 O   0  0  0  0  0  0  0  0  0  0  0  0
   31.9982   66.1379    9.3879 C   0  0  2  0  0  0  0  0  0  0  0  0
   30.6326   65.6686    9.3290 C   0  0  1  0  0  0  0  0  0  0  0  0
   30.0921   65.4148   10.4925 N   0  0  0  0  0  0  0  0  0  0  0  0
   32.7624   66.7337    8.1938 C   0  0  2  0  0  0  0  0  0  0  0  0
   29.9755   65.7911    8.1192 O   0  0  0  0  0  0  0  0  0  0  0  0
   28.7735   65.5107   10.8412 C   0  0  1  0  0  0  0  0  0  0  0  0
   31.8200   66.8127    6.9946 C   0  0  0  0  0  0  0  0  0  0  0  0
   30.5147   66.3044    6.9850 C   0  0  2  0  0  0  0  0  0  0  0  0
   29.5503   66.3955    6.0000 C   0  0  0  0  0  0  0  0  0  0  0  0
   28.1685   65.8918    6.5017 O   0  0  0  0  0  0  0  0  0  0  0  0
   28.4049   65.1189   12.2332 C   0  0  0  0  0  0  0  0  0  0  0  0
   28.9188   63.7425   12.5530 C   0  0  0  0  0  0  0  0  0  0  0  0
   33.6681   65.9232    7.4579 O   0  0  0  0  0  0  0  0  0  0  0  0
   27.7731   63.0046   13.0714 C   0  0  0  0  0  0  0  0  0  0  0  0
   26.6285   63.6719   12.9356 C   0  0  0  0  0  0  0  0  0  0  0  0
   32.1644   67.5727    5.9440 O   0  0  0  0  0  0  0  0  0  0  0  0
   26.8999   65.0513   12.4801 C   0  0  0  0  0  0  0  0  0  0  0  0
   28.3014   66.8534   10.4655 C   0  0  0  0  0  0  0  0  0  0  0  0
  2  1  1  6
  2  3  1  0
  3  4  1  1
  2  5  1  0
  3  6  1  0
  4  7  1  0
  5  8  1  0
  6  9  1  0
  8  9  1  0
  9 10  1  1
 10 11  1  0
  7 12  1  0
 12 13  1  0
  5 14  1  6
 13 15  1  0
 15 16  1  0
  8 17  2  0
 12 18  1  0
 16 18  1  0
  7 19  1  1
M  END
$$$$
64
     RDKit          3D

 19 22  0  0  0  0  0  0  0  0999 V2000
   32.5779   67.4165    6.5407 N   0  0  0  0  0  0  0  0  0  0  0  0
   32.8694   66.6760    7.6722 C   0  0  2  0  0  0  0  0  0  0  0  0
   34.0366   66.2132    7.9044 O   0  0  0  0  0  0  0  0  0  0  0  0
   31.2515   67.5470    6.2599 C   0  0  0  0  0  0  0  0  0  0  0  0
   31.6820   66.0160    8.3427 C   0  0  2  0  0  0  0  0  0  0  0  0
   31.9992   65.3526    9.6348 N   0  0  0  0  0  0  0  0  0  0  0  0
   30.5338   65.9401    7.7924 C   0  0  2  0  0  0  0  0  0  0  0  0
   30.2422   66.7903    6.7562 C   0  0  0  0  0  0  0  0  0  0  0  0
   30.6802   65.0097   10.0612 C   0  0  1  0  0  0  0  0  0  0  0  0
   28.8626   66.8370    6.2027 C   0  0  0  0  0  0  0  0  0  0  0  0
   30.3306   64.4603   11.1642 N   0  0  0  0  0  0  0  0  0  0  0  0
   29.7296   65.7295    9.1101 C   0  0  2  0  0  0  0  0  0  0  0  0
   27.7180   66.4136    7.0668 C   0  0  0  0  0  0  0  0  0  0  0  0
   28.0522   65.8993    8.3867 C   0  0  2  0  0  0  0  0  0  0  0  0
   29.1328   64.6989   11.8817 C   0  0  2  0  0  0  0  0  0  0  0  0
   28.9971   63.9538   13.1336 C   0  0  0  0  0  0  0  0  0  0  0  0
   27.8530   64.6648   11.1492 C   0  0  0  0  0  0  0  0  0  0  0  0
   27.1172   65.5758    9.5095 S   0  0  0  0  0  0  0  0  0  0  0  0
   29.0203   64.6101   14.2314 O   0  0  0  0  0  0  0  0  0  0  0  0
  1  2  1  0
  2  3  1  6
  1  4  1  0
  2  5  1  0
  5  6  1  6
  5  7  1  0
  4  8  1  0
  7  8  1  1
  9  6  1  1
  8 10  1  0
  9 11  1  0
  7 12  1  0
 12  9  1  6
 10 13  1  0
 12 14  1  0
 14 13  1  1
 11 15  1  0
 15 16  1  1
 15 17  1  0
 14 18  1  0
 17 18  1  0
 16 19  1  0
M  END
$$$$
65
     RDKit          3D

 19 22  0  0  0  0  0  0  0  0999 V2000
   25.7378   65.3272    7.6438 C   0  0  0  0  0  0  0  0  0  0  0  0
   26.7717   66.1068    8.1076 C   0  0  1  0  0  0  0  0  0  0  0  0
   25.0271   64.6489    8.3685 C   0  0  0  0  0  0  0  0  0  0  0  0
   25.1957   64.5473    9.7366 C   0  0  0  0  0  0  0  0  0  0  0  0
   26.2456   65.2980   10.2941 C   0  0  0  0  0  0  0  0  0  0  0  0
   27.0569   66.0838    9.4891 C   0  0  1  0  0  0  0  0  0  0  0  0
   28.2262   66.6451   10.0171 C   0  0  0  0  0  0  0  0  0  0  0  0
   29.5053   66.4149    9.4281 C   0  0  2  0  0  0  0  0  0  0  0  0
   30.6145   66.0615   10.2408 N   0  0  0  0  0  0  0  0  0  0  0  0
   31.6649   65.6227    9.8414 C   0  0  0  0  0  0  0  0  0  0  0  0
   29.8458   66.9108    8.1168 C   0  0  0  0  0  0  0  0  0  0  0  0
   28.8845   67.3992    7.2065 C   0  0  0  0  0  0  0  0  0  0  0  0
   31.2573   66.9463    7.7265 C   0  0  2  0  0  0  0  0  0  0  0  0
   31.6591   67.2039    6.3766 C   0  0  0  0  0  0  0  0  0  0  0  0
   32.2524   66.1803    8.5650 C   0  0  1  0  0  0  0  0  0  0  0  0
   27.6229   66.7464    7.1169 C   0  0  0  0  0  0  0  0  0  0  0  0
   33.5997   66.1644    8.1926 N   0  0  0  0  0  0  0  0  0  0  0  0
   33.9213   66.5585    6.9370 C   0  0  0  0  0  0  0  0  0  0  0  0
   32.9485   67.0542    6.1157 N   0  0  0  0  0  0  0  0  0  0  0  0
  2  1  1  6
  1  3  1  0
  3  4  1  0
  4  5  1  0
  2  6  1  0
  6  5  1  6
  6  7  1  0
  8  7  1  1
  8  9  1  0
  9 10  1  0
  8 11  1  0
 11 12  1  0
 11 13  1  0
 13 14  1  6
 15 10  1  1
 13 15  1  0
  2 16  1  0
 12 16  1  0
 15 17  1  0
 17 18  1  0
 14 19  1  0
 18 19  1  0
M  END
$$$$
66
     RDKit          3D

 19 22  0  0  0  0  0  0  0  0999 V2000
   25.7378   65.3272    7.6438 C   0  0  0  0  0  0  0  0  0  0  0  0
   26.7717   66.1068    8.1076 C   0  0  1  0  0  0  0  0  0  0  0  0
   25.0271   64.6489    8.3685 C   0  0  0  0  0  0  0  0  0  0  0  0
   25.1957   64.5473    9.7366 C   0  0  0  0  0  0  0  0  0  0  0  0
   26.2456   65.2980   10.2941 C   0  0  0  0  0  0  0  0  0  0  0  0
   27.0569   66.0838    9.4891 C   0  0  1  0  0  0  0  0  0  0  0  0
   28.2262   66.6451   10.0171 C   0  0  0  0  0  0  0  0  0  0  0  0
   29.5053   66.4149    9.4281 C   0  0  2  0  0  0  0  0  0  0  0  0
   30.6145   66.0615   10.2408 N   0  0  0  0  0  0  0  0  0  0  0  0
   31.6649   65.6227    9.8414 C   0  0  0  0  0  0  0  0  0  0  0  0
   29.8458   66.9108    8.1168 C   0  0  0  0  0  0  0  0  0  0  0  0
   28.8845   67.3992    7.2065 C   0  0  0  0  0  0  0  0  0  0  0  0
   31.2573   66.9463    7.7265 C   0  0  2  0  0  0  0  0  0  0  0  0
   31.6591   67.2039    6.3766 C   0  0  0  0  0  0  0  0  0  0  0  0
   32.2524   66.1803    8.5650 C   0  0  1  0  0  0  0  0  0  0  0  0
   27.6229   66.7464    7.1169 C   0  0  0  0  0  0  0  0  0  0  0  0
   33.5997   66.1644    8.1926 N   0  0  0  0  0  0  0  0  0  0  0  0
   33.9029   66.5798    7.1207 C   0  0  0  0  0  0  0  0  0  0  0  0
   33.0325   67.0079    6.1764 C   0  0  0  0  0  0  0  0  0  0  0  0
  2  1  1  6
  1  3  1  0
  3  4  1  0
  4  5  1  0
  2  6  1  0
  6  5  1  6
  6  7  1  0
  8  7  1  1
  8  9  1  0
  9 10  1  0
  8 11  1  0
 11 12  1  0
 11 13  1  0
 13 14  1  6
 15 10  1  1
 13 15  1  0
  2 16  1  0
 12 16  1  0
 15 17  1  0
 17 18  1  0
 14 19  1  0
 18 19  1  0
M  END
$$$$
67
     RDKit          3D

 19 21  0  0  0  0  0  0  0  0999 V2000
   32.6648   66.3154    6.3686 O   0  0  0  0  0  0  0  0  0  0  0  0
   32.2176   67.1752    7.3004 C   0  0  2  0  0  0  0  0  0  0  0  0
   31.6912   66.3235    8.4500 C   0  0  2  0  0  0  0  0  0  0  0  0
   31.0089   67.5899    6.6012 C   0  0  0  0  0  0  0  0  0  0  0  0
   29.8644   66.8676    6.9234 C   0  0  0  0  0  0  0  0  0  0  0  0
   32.4207   65.5461    9.2521 C   0  0  0  0  0  0  0  0  0  0  0  0
   30.2091   66.2202    8.1113 N   0  0  0  0  0  0  0  0  0  0  0  0
   29.2112   66.0429    9.1472 C   0  0  1  0  0  0  0  0  0  0  0  0
   33.4969   66.1927    9.7404 N   0  0  0  0  0  0  0  0  0  0  0  0
   29.5395   65.6662   10.4086 C   0  0  0  0  0  0  0  0  0  0  0  0
   28.3773   65.5634   11.3019 C   0  0  2  0  0  0  0  0  0  0  0  0
   27.9094   66.5095    8.8853 N   0  0  0  0  0  0  0  0  0  0  0  0
   27.5009   66.6856    7.5194 C   0  0  0  0  0  0  0  0  0  0  0  0
   28.5991   66.5315    6.5777 C   0  0  0  0  0  0  0  0  0  0  0  0
   27.1581   65.9871   10.9531 C   0  0  0  0  0  0  0  0  0  0  0  0
   26.8605   66.3874    9.6760 C   0  0  0  0  0  0  0  0  0  0  0  0
   28.6410   65.0325   12.7512 C   0  0  0  0  0  0  0  0  0  0  0  0
   28.2308   65.6018   13.6647 O   0  0  0  0  0  0  0  0  0  0  0  0
   29.3582   63.8841   12.8588 N   0  0  0  0  0  0  0  0  0  0  0  0
  2  1  1  6
  2  3  1  0
  2  4  1  0
  4  5  1  0
  3  6  1  6
  3  7  1  0
  5  7  1  0
  7  8  1  0
  6  9  1  0
  8 10  1  1
 10 11  1  0
  8 12  1  0
 12 13  1  0
  5 14  1  0
 13 14  1  0
 11 15  1  0
 12 16  1  0
 15 16  1  0
 11 17  1  1
 17 18  2  0
 17 19  1  0
M  END
$$$$
68
     RDKit          3D

 19 21  0  0  0  0  0  0  0  0999 V2000
   32.3157   67.4065    6.0998 O   0  0  0  0  0  0  0  0  0  0  0  0
   32.4451   66.7940    7.2605 C   0  0  0  0  0  0  0  0  0  0  0  0
   31.3248   66.5025    8.0277 C   0  0  2  0  0  0  0  0  0  0  0  0
   31.4567   66.1752    9.3383 C   0  0  0  0  0  0  0  0  0  0  0  0
   33.7369   66.4078    7.4964 N   0  0  0  0  0  0  0  0  0  0  0  0
   30.3442   65.6111    7.4060 C   0  0  2  0  0  0  0  0  0  0  0  0
   29.5081   66.2988    6.3469 C   0  0  0  0  0  0  0  0  0  0  0  0
   28.3037   66.4804    6.9116 C   0  0  0  0  0  0  0  0  0  0  0  0
   28.0130   66.1061    8.2053 C   0  0  0  0  0  0  0  0  0  0  0  0
   32.7130   65.7601    9.7965 N   0  0  0  0  0  0  0  0  0  0  0  0
   29.2463   65.6194    8.7827 C   0  0  2  0  0  0  0  0  0  0  0  0
   30.0589   66.0870    9.8552 C   0  0  1  0  0  0  0  0  0  0  0  0
   33.8137   65.8504    8.9163 C   0  0  0  0  0  0  0  0  0  0  0  0
   30.0449   65.2501   11.1359 N   0  0  0  0  0  0  0  0  0  0  0  0
   28.8351   65.0010   11.7433 C   0  0  0  0  0  0  0  0  0  0  0  0
   27.8214   65.4542   11.2439 O   0  0  0  0  0  0  0  0  0  0  0  0
   28.8475   64.1928   12.9068 C   0  0  0  0  0  0  0  0  0  0  0  0
   27.7668   64.4358   13.7673 C   0  0  0  0  0  0  0  0  0  0  0  0
   28.0293   64.9265   15.0016 N   0  0  0  0  0  0  0  0  0  0  0  0
  1  2  2  0
  3  2  1  6
  3  4  1  0
  2  5  1  0
  3  6  1  0
  6  7  1  6
  7  8  1  0
  8  9  1  0
  4 10  2  0
  6 11  1  0
 11  9  1  6
  4 12  1  0
 11 12  1  0
  5 13  1  0
 10 13  1  0
 12 14  1  1
 14 15  1  0
 15 16  2  0
 15 17  1  0
 17 18  1  0
 18 19  1  0
M  END
$$$$
69
     RDKit          3D

 19 19  0  0  0  0  0  0  0  0999 V2000
   31.8855   67.5502    6.0072 O   0  0  0  0  0  0  0  0  0  0  0  0
   31.4276   66.6777    6.9140 C   0  0  2  0  0  0  0  0  0  0  0  0
   30.0670   66.5588    7.1794 C   0  0  1  0  0  0  0  0  0  0  0  0
   32.4118   66.3903    7.9567 C   0  0  1  0  0  0  0  0  0  0  0  0
   29.0800   66.8566    6.1230 C   0  0  0  0  0  0  0  0  0  0  0  0
   33.7636   66.5418    7.6965 O   0  0  0  0  0  0  0  0  0  0  0  0
   29.7809   65.4999    8.1565 O   0  0  0  0  0  0  0  0  0  0  0  0
   30.2030   65.6824    9.4058 C   0  0  1  0  0  0  0  0  0  0  0  0
   29.9010   64.8541   10.2866 N   0  0  0  0  0  0  0  0  0  0  0  0
   27.6996   66.4174    6.6816 O   0  0  0  0  0  0  0  0  0  0  0  0
   29.6568   65.3166   11.5793 C   0  0  0  0  0  0  0  0  0  0  0  0
   31.6643   66.2917    9.4453 C   0  0  1  0  0  0  0  0  0  0  0  0
   32.3652   65.5311   10.3574 O   0  0  0  0  0  0  0  0  0  0  0  0
   29.1796   64.2539   12.5080 C   0  0  1  0  0  0  0  0  0  0  0  0
   29.2282   64.5153   13.8413 O   0  0  0  0  0  0  0  0  0  0  0  0
   29.5118   66.4377   12.0499 O   0  0  0  0  0  0  0  0  0  0  0  0
   27.6514   63.8612   12.2736 C   0  0  0  0  0  0  0  0  0  0  0  0
   27.1317   63.1822   13.3532 N   0  0  0  0  0  0  0  0  0  0  0  0
   27.0321   63.9561   11.2611 O   0  0  0  0  0  0  0  0  0  0  0  0
  2  1  1  1
  2  3  1  0
  2  4  1  0
  3  5  1  6
  4  6  1  1
  3  7  1  0
  7  8  1  0
  8  9  1  1
  5 10  1  0
  9 11  1  0
  4 12  1  0
  8 12  1  0
 12 13  1  1
 11 14  1  0
 14 15  1  1
 11 16  2  0
 14 17  1  0
 17 18  1  0
 17 19  2  0
M  END
$$$$
7
     RDKit          3D

 13 14  0  0  0  0  0  0  0  0999 V2000
   32.1120   67.3066    6.2523 C   0  0  0  0  0  0  0  0  0  0  0  0
   30.7530   66.9210    6.5585 C   0  0  0  0  0  0  0  0  0  0  0  0
   29.8768   66.6102    5.6942 O   0  0  0  0  0  0  0  0  0  0  0  0
   30.2733   67.1864    7.8988 C   0  0  1  0  0  0  0  0  0  0  0  0
   32.9689   66.5616    7.0288 N   0  0  0  0  0  0  0  0  0  0  0  0
   32.6699   66.6538    8.5263 C   0  0  1  0  0  0  0  0  0  0  0  0
   28.9080   66.6702    8.1911 N   0  0  0  0  0  0  0  0  0  0  0  0
   31.1298   66.1924    8.8132 C   0  0  2  0  0  0  0  0  0  0  0  0
   33.4397   65.6936    9.4425 N   0  0  0  0  0  0  0  0  0  0  0  0
   28.6221   65.4767    8.7155 C   0  0  0  0  0  0  0  0  0  0  0  0
   31.0178   64.8947    8.7405 O   0  0  0  0  0  0  0  0  0  0  0  0
   29.8062   64.7370    9.2224 C   0  0  0  0  0  0  0  0  0  0  0  0
   27.3359   65.1955    8.8507 O   0  0  0  0  0  0  0  0  0  0  0  0
  1  2  1  0
  2  3  2  0
  2  4  1  0
  1  5  1  0
  5  6  1  0
  4  7  1  6
  4  8  1  0
  6  8  1  0
  6  9  1  1
  7 10  1  0
  8 11  1  6
 10 12  1  0
 11 12  1  0
 10 13  2  0
M  END
$$$$
70
     RDKit          3D

 19 19  0  0  0  0  0  0  0  0999 V2000
   32.7927   65.3669   10.0780 O   0  0  0  0  0  0  0  0  0  0  0  0
   31.9982   66.1379    9.3879 C   0  0  1  0  0  0  0  0  0  0  0  0
   32.5022   66.4596    8.0288 C   0  0  2  0  0  0  0  0  0  0  0  0
   30.6999   65.3500    9.3677 C   0  0  1  0  0  0  0  0  0  0  0  0
   33.8084   66.7124    7.7653 O   0  0  0  0  0  0  0  0  0  0  0  0
   29.9792   65.4181   10.5324 N   0  0  0  0  0  0  0  0  0  0  0  0
   29.9612   65.7207    8.1500 O   0  0  0  0  0  0  0  0  0  0  0  0
   31.4129   67.3957    7.3823 C   0  0  2  0  0  0  0  0  0  0  0  0
   28.7675   64.7698   10.7943 C   0  0  0  0  0  0  0  0  0  0  0  0
   30.3398   66.4447    7.1875 C   0  0  1  0  0  0  0  0  0  0  0  0
   30.4104   65.5224    6.0695 C   0  0  0  0  0  0  0  0  0  0  0  0
   31.8767   67.9585    6.1488 O   0  0  0  0  0  0  0  0  0  0  0  0
   29.4792   64.4862    6.1144 O   0  0  0  0  0  0  0  0  0  0  0  0
   28.2014   64.1216    9.9898 O   0  0  0  0  0  0  0  0  0  0  0  0
   28.2800   64.8296   12.1824 C   0  0  1  0  0  0  0  0  0  0  0  0
   28.2807   63.6267   12.9379 C   0  0  0  0  0  0  0  0  0  0  0  0
   29.1866   65.7256   13.0355 C   0  0  0  0  0  0  0  0  0  0  0  0
   27.0694   62.9264   12.8443 N   0  0  0  0  0  0  0  0  0  0  0  0
   29.1409   63.1054   13.6499 O   0  0  0  0  0  0  0  0  0  0  0  0
  2  1  1  1
  2  3  1  0
  2  4  1  0
  3  5  1  1
  4  6  1  1
  4  7  1  0
  3  8  1  0
  6  9  1  0
  7 10  1  0
  8 10  1  0
 10 11  1  6
  8 12  1  6
 11 13  1  0
  9 14  2  0
  9 15  1  0
 15 16  1  0
 15 17  1  1
 16 18  1  0
 16 19  2  0
M  END
$$$$
71
     RDKit          3D

 19 20  0  0  0  0  0  0  0  0999 V2000
   32.6648   66.3154    6.3686 O   0  0  0  0  0  0  0  0  0  0  0  0
   32.2176   67.1752    7.3004 C   0  0  2  0  0  0  0  0  0  0  0  0
   31.6912   66.3235    8.4500 C   0  0  2  0  0  0  0  0  0  0  0  0
   31.0089   67.5899    6.6012 C   0  0  0  0  0  0  0  0  0  0  0  0
   29.8644   66.8676    6.9234 C   0  0  1  0  0  0  0  0  0  0  0  0
   32.4207   65.5461    9.2521 C   0  0  0  0  0  0  0  0  0  0  0  0
   30.2091   66.2202    8.1113 N   0  0  0  0  0  0  0  0  0  0  0  0
   29.2112   66.0429    9.1472 C   0  0  1  0  0  0  0  0  0  0  0  0
   33.4969   66.1927    9.7404 N   0  0  0  0  0  0  0  0  0  0  0  0
   29.5395   65.6662   10.4086 C   0  0  0  0  0  0  0  0  0  0  0  0
   28.3773   65.5634   11.3019 C   0  0  0  0  0  0  0  0  0  0  0  0
   27.9094   66.5095    8.8853 N   0  0  0  0  0  0  0  0  0  0  0  0
   27.5009   66.6856    7.5194 C   0  0  0  0  0  0  0  0  0  0  0  0
   26.3221   66.6248    7.2680 O   0  0  0  0  0  0  0  0  0  0  0  0
   28.6865   65.1242   12.7012 C   0  0  1  0  0  0  0  0  0  0  0  0
   28.5714   66.6827    6.5401 C   0  0  0  0  0  0  0  0  0  0  0  0
   28.5481   63.6992   12.9022 C   0  0  0  0  0  0  0  0  0  0  0  0
   30.1041   65.3322   13.1106 N   0  0  0  0  0  0  0  0  0  0  0  0
   27.2892   63.1629   12.3308 O   0  0  0  0  0  0  0  0  0  0  0  0
  2  1  1  6
  2  3  1  0
  2  4  1  0
  5  4  1  1
  3  6  1  6
  3  7  1  0
  5  7  1  0
  7  8  1  0
  6  9  1  0
  8 10  1  1
 10 11  1  0
  8 12  1  0
 12 13  1  0
 13 14  2  0
 11 15  1  0
  5 16  1  0
 13 16  1  0
 15 17  1  0
 15 18  1  6
 17 19  1  0
M  END
$$$$
72
     RDKit          3D

 19 21  0  0  0  0  0  0  0  0999 V2000
   33.6942   66.2004    7.3852 O   0  0  0  0  0  0  0  0  0  0  0  0
   32.5292   66.8086    7.4600 C   0  0  2  0  0  0  0  0  0  0  0  0
   31.6837   66.1778    8.4615 C   0  0  1  0  0  0  0  0  0  0  0  0
   31.7955   66.7485    6.1941 C   0  0  0  0  0  0  0  0  0  0  0  0
   32.2235   66.1947    9.7870 N   0  0  0  0  0  0  0  0  0  0  0  0
   30.3208   66.7341    8.4655 C   0  0  1  0  0  0  0  0  0  0  0  0
   30.3800   67.1925    6.3255 N   0  0  0  0  0  0  0  0  0  0  0  0
   29.6346   66.4547    7.1916 C   0  0  0  0  0  0  0  0  0  0  0  0
   29.5258   65.9124    9.5844 C   0  0  0  0  0  0  0  0  0  0  0  0
   28.2504   66.4017    9.7391 O   0  0  0  0  0  0  0  0  0  0  0  0
   30.0821   65.4616   10.6896 N   0  0  0  0  0  0  0  0  0  0  0  0
   27.4030   65.9803   10.6492 C   0  0  1  0  0  0  0  0  0  0  0  0
   26.4252   66.9048   10.9102 C   0  0  0  0  0  0  0  0  0  0  0  0
   26.6943   64.7563   10.1580 C   0  0  1  0  0  0  0  0  0  0  0  0
   25.3949   66.3670   11.8481 C   0  0  0  0  0  0  0  0  0  0  0  0
   27.5685   63.6488    9.8125 O   0  0  0  0  0  0  0  0  0  0  0  0
   25.4125   64.3955   10.4022 C   0  0  0  0  0  0  0  0  0  0  0  0
   24.6578   65.2698   11.2597 C   0  0  0  0  0  0  0  0  0  0  0  0
   31.7381   65.2451   10.7045 C   0  0  0  0  0  0  0  0  0  0  0  0
  2  1  1  6
  2  3  1  0
  2  4  1  0
  3  5  1  1
  3  6  1  0
  4  7  1  0
  6  8  1  6
  7  8  1  0
  6  9  1  0
  9 10  1  0
  9 11  2  0
 12 10  1  6
 12 13  1  0
 12 14  1  0
 13 15  1  0
 14 16  1  1
 14 17  1  0
 15 18  1  0
 17 18  1  0
  5 19  1  0
 11 19  1  0
M  END
$$$$
73
     RDKit          3D

 19 21  0  0  0  0  0  0  0  0999 V2000
   25.7378   65.3272    7.6438 C   0  0  0  0  0  0  0  0  0  0  0  0
   26.7717   66.1068    8.1076 C   0  0  0  0  0  0  0  0  0  0  0  0
   25.0271   64.6489    8.3685 C   0  0  1  0  0  0  0  0  0  0  0  0
   27.1466   65.9761    9.4486 C   0  0  2  0  0  0  0  0  0  0  0  0
   25.1735   64.5539    9.7299 C   0  0  0  0  0  0  0  0  0  0  0  0
   23.9063   63.9496    7.7321 O   0  0  0  0  0  0  0  0  0  0  0  0
   26.2405   65.2464   10.2777 C   0  0  1  0  0  0  0  0  0  0  0  0
   26.6102   65.0835   11.7119 C   0  0  0  0  0  0  0  0  0  0  0  0
   28.2966   66.8055   10.0423 C   0  0  0  0  0  0  0  0  0  0  0  0
   28.4538   66.7492   11.3594 C   0  0  0  0  0  0  0  0  0  0  0  0
   27.6651   65.9462   12.2128 C   0  0  0  0  0  0  0  0  0  0  0  0
   29.5635   67.5877   11.9505 C   0  0  0  0  0  0  0  0  0  0  0  0
   27.8293   65.9515   13.7785 C   0  0  2  0  0  0  0  0  0  0  0  0
   28.9746   66.7415   14.1312 C   0  0  0  0  0  0  0  0  0  0  0  0
   29.6250   67.5094   13.3053 N   0  0  0  0  0  0  0  0  0  0  0  0
   27.5087   64.7050   14.3389 C   0  0  0  0  0  0  0  0  0  0  0  0
   29.2180   66.9775   15.4295 O   0  0  0  0  0  0  0  0  0  0  0  0
   27.0862   64.6711   15.5457 O   0  0  0  0  0  0  0  0  0  0  0  0
   27.5663   63.5488   13.6315 O   0  0  0  0  0  0  0  0  0  0  0  0
  1  2  1  0
  1  3  1  0
  4  2  1  1
  3  5  1  0
  3  6  1  1
  4  7  1  0
  7  5  1  6
  7  8  1  0
  4  9  1  0
  9 10  1  0
  8 11  1  0
 10 11  1  0
 10 12  1  0
 11 13  1  0
 13 14  1  0
 12 15  1  0
 14 15  1  0
 13 16  1  6
 14 17  2  0
 16 18  1  0
 16 19  2  0
M  END
$$$$
74
     RDKit          3D

 19 20  0  0  0  0  0  0  0  0999 V2000
   32.7927   65.3669   10.0780 O   0  0  0  0  0  0  0  0  0  0  0  0
   31.9982   66.1379    9.3879 C   0  0  2  0  0  0  0  0  0  0  0  0
   30.6326   65.6686    9.3290 C   0  0  1  0  0  0  0  0  0  0  0  0
   30.0921   65.4148   10.4925 N   0  0  0  0  0  0  0  0  0  0  0  0
   32.7624   66.7337    8.1938 C   0  0  2  0  0  0  0  0  0  0  0  0
   29.9755   65.7911    8.1192 O   0  0  0  0  0  0  0  0  0  0  0  0
   28.7735   65.5107   10.8412 C   0  0  0  0  0  0  0  0  0  0  0  0
   31.8200   66.8127    6.9946 C   0  0  0  0  0  0  0  0  0  0  0  0
   30.5147   66.3044    6.9850 C   0  0  2  0  0  0  0  0  0  0  0  0
   29.5503   66.3955    6.0000 C   0  0  0  0  0  0  0  0  0  0  0  0
   28.1685   65.8918    6.5017 O   0  0  0  0  0  0  0  0  0  0  0  0
   28.4049   65.1189   12.2332 C   0  0  1  0  0  0  0  0  0  0  0  0
   33.6853   65.9421    7.4711 O   0  0  0  0  0  0  0  0  0  0  0  0
   28.9678   63.7751   12.5697 C   0  0  0  0  0  0  0  0  0  0  0  0
   32.1487   67.5762    5.9308 O   0  0  0  0  0  0  0  0  0  0  0  0
   28.9774   66.0621   13.2063 C   0  0  0  0  0  0  0  0  0  0  0  0
   28.2254   63.2687   13.7298 N   0  0  0  0  0  0  0  0  0  0  0  0
   28.6781   65.6293   14.5681 C   0  0  0  0  0  0  0  0  0  0  0  0
   27.4522   64.3982   14.3428 C   0  0  0  0  0  0  0  0  0  0  0  0
  2  1  1  6
  2  3  1  0
  3  4  1  1
  2  5  1  0
  3  6  1  0
  4  7  1  0
  5  8  1  0
  6  9  1  0
  8  9  1  0
  9 10  1  1
 10 11  1  0
 12  7  1  6
  5 13  1  6
 12 14  1  0
  8 15  2  0
 12 16  1  0
 14 17  1  0
 16 18  1  0
 17 19  1  0
 18 19  1  0
M  END
$$$$
75
     RDKit          3D

 19 19  0  0  0  0  0  0  0  0999 V2000
   32.7927   65.3669   10.0780 O   0  0  0  0  0  0  0  0  0  0  0  0
   31.9982   66.1379    9.3879 C   0  0  2  0  0  0  0  0  0  0  0  0
   30.6326   65.6686    9.3290 C   0  0  1  0  0  0  0  0  0  0  0  0
   30.0921   65.4148   10.4925 N   0  0  0  0  0  0  0  0  0  0  0  0
   32.7624   66.7337    8.1938 C   0  0  2  0  0  0  0  0  0  0  0  0
   29.9755   65.7911    8.1192 O   0  0  0  0  0  0  0  0  0  0  0  0
   28.7735   65.5107   10.8412 C   0  0  0  0  0  0  0  0  0  0  0  0
   31.8200   66.8127    6.9946 C   0  0  0  0  0  0  0  0  0  0  0  0
   30.5147   66.3044    6.9850 C   0  0  2  0  0  0  0  0  0  0  0  0
   29.5503   66.3955    6.0000 C   0  0  0  0  0  0  0  0  0  0  0  0
   28.1685   65.8918    6.5017 O   0  0  0  0  0  0  0  0  0  0  0  0
   28.4049   65.1189   12.2332 C   0  0  1  0  0  0  0  0  0  0  0  0
   33.6853   65.9421    7.4711 O   0  0  0  0  0  0  0  0  0  0  0  0
   28.9678   63.7751   12.5697 C   0  0  0  0  0  0  0  0  0  0  0  0
   32.1487   67.5762    5.9308 O   0  0  0  0  0  0  0  0  0  0  0  0
   28.9774   66.0621   13.2063 C   0  0  0  0  0  0  0  0  0  0  0  0
   28.8796   65.5473   14.5328 N   0  0  0  0  0  0  0  0  0  0  0  0
   27.9497   62.7810   12.3160 C   0  0  0  0  0  0  0  0  0  0  0  0
   29.2140   66.2585   15.5634 C   0  0  0  0  0  0  0  0  0  0  0  0
  2  1  1  6
  2  3  1  0
  3  4  1  1
  2  5  1  0
  3  6  1  0
  4  7  1  0
  5  8  1  0
  6  9  1  0
  8  9  1  0
  9 10  1  1
 10 11  1  0
 12  7  1  6
  5 13  1  6
 12 14  1  0
  8 15  2  0
 12 16  1  0
 16 17  1  0
 14 18  1  0
 17 19  1  0
M  END
$$$$
76
     RDKit          3D

 20 20  0  0  0  0  0  0  0  0999 V2000
   31.6879   67.5931    5.9647 O   0  0  0  0  0  0  0  0  0  0  0  0
   31.2485   66.7073    6.8918 C   0  0  1  0  0  0  0  0  0  0  0  0
   32.0991   66.5889    8.0526 C   0  0  1  0  0  0  0  0  0  0  0  0
   29.8929   67.1199    7.3875 C   0  0  1  0  0  0  0  0  0  0  0  0
   31.5978   66.1437    9.2723 C   0  0  2  0  0  0  0  0  0  0  0  0
   28.8690   67.0434    6.2441 O   0  0  0  0  0  0  0  0  0  0  0  0
   29.2916   66.6519    8.5966 C   0  0  1  0  0  0  0  0  0  0  0  0
   28.8989   65.4238    8.4003 O   0  0  0  0  0  0  0  0  0  0  0  0
   33.5615   66.8063    7.8753 N   0  0  0  0  0  0  0  0  0  0  0  0
   30.4938   66.5193    9.5800 C   0  0  1  0  0  0  0  0  0  0  0  0
   32.6661   66.2613   10.2919 O   0  0  0  0  0  0  0  0  0  0  0  0
   34.2944   65.6328    7.4213 O   0  0  0  0  0  0  0  0  0  0  0  0
   29.8950   65.8864   10.8177 O   0  0  0  0  0  0  0  0  0  0  0  0
   28.8720   66.2147   11.4651 C   0  0  0  0  0  0  0  0  0  0  0  0
   28.1226   65.4357   12.0523 C   0  0  1  0  0  0  0  0  0  0  0  0
   28.6633   64.7944   13.2123 C   0  0  2  0  0  0  0  0  0  0  0  0
   28.0570   63.6766   13.7023 C   0  0  0  0  0  0  0  0  0  0  0  0
   28.7588   65.4826   14.4284 N   0  0  0  0  0  0  0  0  0  0  0  0
   27.4618   62.6242   12.7576 O   0  0  0  0  0  0  0  0  0  0  0  0
   26.9441   66.2002   12.4348 O   0  0  0  0  0  0  0  0  0  0  0  0
  2  1  1  6
  2  3  1  0
  2  4  1  0
  3  5  1  0
  4  6  1  6
  4  7  1  0
  7  8  1  6
  3  9  1  6
  5 10  1  0
  7 10  1  0
  5 11  1  1
  9 12  1  0
 10 13  1  1
 13 14  1  0
 14 15  1  0
 15 16  1  0
 16 17  1  0
 16 18  1  1
 17 19  1  0
 15 20  1  1
M  END
$$$$
77
     RDKit          3D

 20 21  0  0  0  0  0  0  0  0999 V2000
   31.8855   67.5502    6.0072 O   0  0  0  0  0  0  0  0  0  0  0  0
   31.4276   66.6777    6.9140 C   0  0  2  0  0  0  0  0  0  0  0  0
   30.0670   66.5588    7.1794 C   0  0  1  0  0  0  0  0  0  0  0  0
   32.4118   66.3903    7.9567 C   0  0  1  0  0  0  0  0  0  0  0  0
   29.0800   66.8566    6.1230 C   0  0  0  0  0  0  0  0  0  0  0  0
   29.8014   65.8209    8.2790 O   0  0  0  0  0  0  0  0  0  0  0  0
   27.7160   66.6046    6.7278 O   0  0  0  0  0  0  0  0  0  0  0  0
   33.7789   66.5582    7.7248 O   0  0  0  0  0  0  0  0  0  0  0  0
   32.1034   66.1778    9.2051 C   0  0  1  0  0  0  0  0  0  0  0  0
   30.6761   65.8450    9.4315 C   0  0  2  0  0  0  0  0  0  0  0  0
   32.9529   65.3391    9.9141 O   0  0  0  0  0  0  0  0  0  0  0  0
   30.1894   65.4696   10.6485 N   0  0  0  0  0  0  0  0  0  0  0  0
   28.9194   65.5632   11.1690 C   0  0  0  0  0  0  0  0  0  0  0  0
   28.1199   66.2667   10.6960 O   0  0  0  0  0  0  0  0  0  0  0  0
   28.6007   65.0728   12.4600 C   0  0  2  0  0  0  0  0  0  0  0  0
   28.3703   63.6264   12.4577 C   0  0  0  0  0  0  0  0  0  0  0  0
   28.1697   63.0060   13.7257 C   0  0  0  0  0  0  0  0  0  0  0  0
   27.7844   64.1662   14.5339 C   0  0  1  0  0  0  0  0  0  0  0  0
   27.6303   65.5032   13.4091 C   0  0  0  0  0  0  0  0  0  0  0  0
   26.9542   64.5333   15.5728 N   0  0  0  0  0  0  0  0  0  0  0  0
  2  1  1  1
  2  3  1  0
  2  4  1  0
  3  5  1  6
  3  6  1  0
  5  7  1  0
  4  8  1  1
  4  9  1  0
  6 10  1  0
  9 10  1  0
  9 11  1  6
 10 12  1  6
 12 13  1  0
 13 14  2  0
 15 13  1  6
 15 16  1  0
 16 17  1  0
 17 18  1  0
 15 19  1  0
 18 19  1  0
 18 20  1  6
M  END
$$$$
78
     RDKit          3D

 20 22  0  0  0  0  0  0  0  0999 V2000
   33.6942   66.2004    7.3852 O   0  0  0  0  0  0  0  0  0  0  0  0
   32.5292   66.8086    7.4600 C   0  0  2  0  0  0  0  0  0  0  0  0
   31.6837   66.1778    8.4615 C   0  0  1  0  0  0  0  0  0  0  0  0
   31.7955   66.7485    6.1941 C   0  0  0  0  0  0  0  0  0  0  0  0
   32.2235   66.1947    9.7870 N   0  0  0  0  0  0  0  0  0  0  0  0
   30.3208   66.7341    8.4655 C   0  0  1  0  0  0  0  0  0  0  0  0
   30.3800   67.1925    6.3255 N   0  0  0  0  0  0  0  0  0  0  0  0
   29.6346   66.4547    7.1916 C   0  0  1  0  0  0  0  0  0  0  0  0
   29.5075   65.0257    6.8436 O   0  0  0  0  0  0  0  0  0  0  0  0
   29.5631   65.9784    9.6201 C   0  0  2  0  0  0  0  0  0  0  0  0
   28.3969   66.6517   10.0655 O   0  0  0  0  0  0  0  0  0  0  0  0
   30.2278   65.5316   10.7967 N   0  0  0  0  0  0  0  0  0  0  0  0
   31.6619   65.2508   10.6922 C   0  0  0  0  0  0  0  0  0  0  0  0
   27.3826   65.9573   10.5917 C   0  0  2  0  0  0  0  0  0  0  0  0
   29.3932   64.6133   11.5490 C   0  0  0  0  0  0  0  0  0  0  0  0
   26.1878   66.6550   10.7900 C   0  0  0  0  0  0  0  0  0  0  0  0
   28.0169   65.0749   11.5984 C   0  0  2  0  0  0  0  0  0  0  0  0
   25.2288   65.8687   11.4576 O   0  0  0  0  0  0  0  0  0  0  0  0
   27.1123   63.9128   11.9484 O   0  0  0  0  0  0  0  0  0  0  0  0
   27.4304   63.1536   13.1026 C   0  0  0  0  0  0  0  0  0  0  0  0
  2  1  1  6
  2  3  1  0
  2  4  1  0
  3  5  1  1
  3  6  1  0
  4  7  1  0
  6  8  1  6
  7  8  1  0
  8  9  1  6
  6 10  1  0
 10 11  1  1
 10 12  1  0
  5 13  1  0
 12 13  1  0
 11 14  1  0
 12 15  1  0
 14 16  1  1
 14 17  1  0
 15 17  1  0
 16 18  1  0
 17 19  1  6
 19 20  1  0
M  END
$$$$
79
     RDKit          3D

 20 22  0  0  0  0  0  0  0  0999 V2000
   33.6942   66.2004    7.3852 O   0  0  0  0  0  0  0  0  0  0  0  0
   32.5292   66.8086    7.4600 C   0  0  1  0  0  0  0  0  0  0  0  0
   31.9308   67.1940    6.2806 C   0  0  0  0  0  0  0  0  0  0  0  0
   30.4318   67.0704    6.4081 C   0  0  0  0  0  0  0  0  0  0  0  0
   29.8039   66.6669    7.5054 C   0  0  0  0  0  0  0  0  0  0  0  0
   28.3139   66.6943    7.5470 C   0  0  0  0  0  0  0  0  0  0  0  0
   27.6180   66.5179    6.4892 O   0  0  0  0  0  0  0  0  0  0  0  0
   30.3940   66.2162    8.6810 C   0  0  2  0  0  0  0  0  0  0  0  0
   29.6409   65.8948    9.8223 C   0  0  1  0  0  0  0  0  0  0  0  0
   30.4779   65.5328   10.9355 N   0  0  0  0  0  0  0  0  0  0  0  0
   31.8752   66.3506    8.7436 C   0  0  1  0  0  0  0  0  0  0  0  0
   28.4139   66.0350    9.6849 C   0  0  1  0  0  0  0  0  0  0  0  0
   32.6317   66.0345    9.8033 O   0  0  0  0  0  0  0  0  0  0  0  0
   29.5931   64.7857   11.8948 C   0  0  0  0  0  0  0  0  0  0  0  0
   27.8238   66.3195    8.6326 N   0  0  0  0  0  0  0  0  0  0  0  0
   27.7180   65.3488   10.7440 C   0  0  2  0  0  0  0  0  0  0  0  0
   26.2557   65.4313   10.7390 O   0  0  0  0  0  0  0  0  0  0  0  0
   28.2803   64.8307   11.8515 C   0  0  1  0  0  0  0  0  0  0  0  0
   27.5517   64.1714   12.9559 C   0  0  0  0  0  0  0  0  0  0  0  0
   28.1601   63.3793   13.7357 N   0  0  0  0  0  0  0  0  0  0  0  0
  2  1  1  6
  2  3  1  0
  3  4  1  0
  4  5  1  0
  5  6  1  0
  6  7  2  0
  8  5  1  1
  8  9  1  0
  9 10  1  1
  2 11  1  0
  8 11  1  0
  9 12  1  0
 11 13  1  6
 10 14  1  0
  6 15  1  0
 12 15  1  6
 12 16  1  0
 16 17  1  1
 14 18  1  0
 16 18  1  0
 18 19  1  6
 19 20  1  0
M  END
$$$$
8
     RDKit          3D

 13 13  0  0  0  0  0  0  0  0999 V2000
   28.8153   67.4298    6.4406 C   0  0  0  0  0  0  0  0  0  0  0  0
   27.9851   66.6153    7.1638 C   0  0  0  0  0  0  0  0  0  0  0  0
   30.2124   67.0477    6.5837 C   0  0  1  0  0  0  0  0  0  0  0  0
   26.6021   66.6607    7.2050 O   0  0  0  0  0  0  0  0  0  0  0  0
   28.4690   65.5825    8.0767 C   0  0  0  0  0  0  0  0  0  0  0  0
   29.8322   65.4290    8.2957 N   0  0  0  0  0  0  0  0  0  0  0  0
   31.1843   67.7381    5.8838 O   0  0  0  0  0  0  0  0  0  0  0  0
   30.6950   66.1456    7.5276 C   0  0  1  0  0  0  0  0  0  0  0  0
   32.0205   65.8792    7.6327 C   0  0  2  0  0  0  0  0  0  0  0  0
   32.5253   65.6041    9.0386 C   0  0  0  0  0  0  0  0  0  0  0  0
   33.0930   66.3128    6.8582 N   0  0  0  0  0  0  0  0  0  0  0  0
   32.8151   64.6527    9.3779 O   0  0  0  0  0  0  0  0  0  0  0  0
   32.3842   66.6414   10.0624 N   0  0  0  0  0  0  0  0  0  0  0  0
  1  2  1  0
  1  3  1  0
  2  4  1  0
  2  5  1  0
  5  6  1  0
  3  7  1  1
  3  8  1  0
  8  6  1  6
  8  9  1  0
  9 10  1  0
  9 11  1  1
 10 12  2  0
 10 13  1  0
M  END
$$$$
80
     RDKit          3D

 20 22  0  0  0  0  0  0  0  0999 V2000
   33.6183   66.0059    7.4162 O   0  0  0  0  0  0  0  0  0  0  0  0
   32.6565   66.5888    8.1501 C   0  0  1  0  0  0  0  0  0  0  0  0
   31.4523   66.7387    7.3552 C   0  0  0  0  0  0  0  0  0  0  0  0
   30.2234   66.5194    7.9191 C   0  0  0  0  0  0  0  0  0  0  0  0
   31.5122   67.1165    5.9986 O   0  0  0  0  0  0  0  0  0  0  0  0
   32.6060   66.2478    9.4978 C   0  0  0  0  0  0  0  0  0  0  0  0
   31.2843   66.0254    9.9935 N   0  0  0  0  0  0  0  0  0  0  0  0
   30.1287   66.1555    9.2927 C   0  0  0  0  0  0  0  0  0  0  0  0
   28.9133   65.9053   10.1384 C   0  0  2  0  0  0  0  0  0  0  0  0
   28.9753   65.1804   11.1900 C   0  0  0  0  0  0  0  0  0  0  0  0
   28.8035   66.5990    7.4651 C   0  0  0  0  0  0  0  0  0  0  0  0
   27.6804   66.3294    8.0883 C   0  0  0  0  0  0  0  0  0  0  0  0
   27.7137   65.5856    9.3515 C   0  0  2  0  0  0  0  0  0  0  0  0
   26.4123   65.6913   10.0435 C   0  0  0  0  0  0  0  0  0  0  0  0
   26.5337   64.9250   11.3862 C   0  0  0  0  0  0  0  0  0  0  0  0
   29.9054   65.2687   12.2148 O   0  0  0  0  0  0  0  0  0  0  0  0
   27.8055   65.0139   12.1178 N   0  0  0  0  0  0  0  0  0  0  0  0
   27.8675   64.0331   13.2244 C   0  0  0  0  0  0  0  0  0  0  0  0
   27.3535   62.7675   12.9486 O   0  0  0  0  0  0  0  0  0  0  0  0
   28.0276   64.2689   14.4461 O   0  0  0  0  0  0  0  0  0  0  0  0
  2  1  1  6
  2  3  1  0
  3  4  1  0
  3  5  1  0
  2  6  1  0
  6  7  1  0
  4  8  1  0
  7  8  1  0
  9  8  1  6
  9 10  1  0
  4 11  1  0
 11 12  1  0
  9 13  1  0
 13 12  1  6
 13 14  1  0
 14 15  1  0
 10 16  2  0
 10 17  1  0
 15 17  1  0
 17 18  1  0
 18 19  1  0
 18 20  2  0
M  END
$$$$
81
     RDKit          3D

 20 22  0  0  0  0  0  0  0  0999 V2000
   33.6942   66.2004    7.3852 O   0  0  0  0  0  0  0  0  0  0  0  0
   32.5292   66.8086    7.4600 C   0  0  1  0  0  0  0  0  0  0  0  0
   31.9308   67.1940    6.2806 C   0  0  0  0  0  0  0  0  0  0  0  0
   30.4318   67.0704    6.4081 C   0  0  0  0  0  0  0  0  0  0  0  0
   29.8039   66.6669    7.5054 C   0  0  0  0  0  0  0  0  0  0  0  0
   28.3139   66.6943    7.5470 C   0  0  0  0  0  0  0  0  0  0  0  0
   27.6180   66.5179    6.4892 O   0  0  0  0  0  0  0  0  0  0  0  0
   30.3940   66.2162    8.6810 C   0  0  2  0  0  0  0  0  0  0  0  0
   29.6409   65.8948    9.8223 C   0  0  1  0  0  0  0  0  0  0  0  0
   30.4779   65.5328   10.9355 N   0  0  0  0  0  0  0  0  0  0  0  0
   31.8752   66.3506    8.7436 C   0  0  1  0  0  0  0  0  0  0  0  0
   28.4139   66.0350    9.6849 C   0  0  2  0  0  0  0  0  0  0  0  0
   32.6317   66.0345    9.8033 O   0  0  0  0  0  0  0  0  0  0  0  0
   29.5931   64.7857   11.8948 C   0  0  0  0  0  0  0  0  0  0  0  0
   27.6015   65.6775   10.9160 C   0  0  0  0  0  0  0  0  0  0  0  0
   27.6469   66.3277    8.5962 N   0  0  0  0  0  0  0  0  0  0  0  0
   28.3768   64.9398   11.9617 C   0  0  1  0  0  0  0  0  0  0  0  0
   27.5011   64.4130   12.9330 C   0  0  2  0  0  0  0  0  0  0  0  0
   28.1995   63.5249   13.8751 N   0  0  0  0  0  0  0  0  0  0  0  0
   26.4396   63.3862   12.4842 C   0  0  0  0  0  0  0  0  0  0  0  0
  2  1  1  6
  2  3  1  0
  3  4  1  0
  4  5  1  0
  5  6  1  0
  6  7  2  0
  8  5  1  1
  8  9  1  0
  9 10  1  1
  2 11  1  0
  8 11  1  0
  9 12  1  0
 11 13  1  6
 10 14  1  0
 12 15  1  6
  6 16  1  0
 12 16  1  0
 17 14  1  6
 15 17  1  0
 17 18  1  0
 18 19  1  0
 18 20  1  6
M  END
$$$$
82
     RDKit          3D

 20 23  0  0  0  0  0  0  0  0999 V2000
   25.7378   65.3272    7.6438 C   0  0  0  0  0  0  0  0  0  0  0  0
   26.7717   66.1068    8.1076 C   0  0  1  0  0  0  0  0  0  0  0  0
   25.0271   64.6489    8.3685 C   0  0  0  0  0  0  0  0  0  0  0  0
   25.1957   64.5473    9.7366 C   0  0  0  0  0  0  0  0  0  0  0  0
   26.2456   65.2980   10.2941 C   0  0  0  0  0  0  0  0  0  0  0  0
   27.0569   66.0838    9.4891 C   0  0  1  0  0  0  0  0  0  0  0  0
   28.2262   66.6451   10.0171 C   0  0  0  0  0  0  0  0  0  0  0  0
   29.5053   66.4149    9.4281 C   0  0  2  0  0  0  0  0  0  0  0  0
   30.6145   66.0615   10.2408 N   0  0  0  0  0  0  0  0  0  0  0  0
   31.6649   65.6227    9.8414 C   0  0  0  0  0  0  0  0  0  0  0  0
   29.8458   66.9108    8.1168 C   0  0  0  0  0  0  0  0  0  0  0  0
   28.8845   67.3992    7.2065 C   0  0  0  0  0  0  0  0  0  0  0  0
   31.2573   66.9463    7.7265 C   0  0  2  0  0  0  0  0  0  0  0  0
   31.6591   67.2039    6.3766 C   0  0  0  0  0  0  0  0  0  0  0  0
   32.1604   65.7950    8.3351 C   0  0  1  0  0  0  0  0  0  0  0  0
   27.6311   66.5687    7.1830 C   0  0  0  0  0  0  0  0  0  0  0  0
   33.5885   66.2713    8.2725 N   0  0  0  0  0  0  0  0  0  0  0  0
   33.1348   67.1916    6.2932 C   0  0  0  0  0  0  0  0  0  0  0  0
   33.8401   66.1545    6.9465 O   0  0  0  0  0  0  0  0  0  0  0  0
   32.5834   65.0192   10.4674 O   0  0  0  0  0  0  0  0  0  0  0  0
  2  1  1  6
  1  3  1  0
  3  4  1  0
  4  5  1  0
  2  6  1  0
  6  5  1  6
  6  7  1  0
  8  7  1  1
  8  9  1  0
  9 10  1  0
  8 11  1  0
 11 12  1  0
 11 13  1  0
 13 14  1  6
 10 15  1  0
 13 15  1  0
  2 16  1  0
 12 16  1  0
 15 17  1  1
 14 18  1  0
 17 19  1  0
 18 19  1  0
 10 20  2  0
M  END
$$$$
83
     RDKit          3D

 20 23  0  0  0  0  0  0  0  0999 V2000
   32.3157   67.4065    6.0998 N   0  0  0  0  0  0  0  0  0  0  0  0
   32.5933   66.8479    7.2910 C   0  0  2  0  0  0  0  0  0  0  0  0
   33.8812   66.5925    7.5827 O   0  0  0  0  0  0  0  0  0  0  0  0
   31.5057   66.4826    8.1895 C   0  0  1  0  0  0  0  0  0  0  0  0
   30.8223   67.2638    5.9354 N   0  0  0  0  0  0  0  0  0  0  0  0
   30.2740   66.6775    6.9728 C   0  0  2  0  0  0  0  0  0  0  0  0
   31.4006   65.9049    9.4668 C   0  0  2  0  0  0  0  0  0  0  0  0
   28.9319   66.4824    7.5354 C   0  0  2  0  0  0  0  0  0  0  0  0
   27.9023   66.6528    6.6453 C   0  0  0  0  0  0  0  0  0  0  0  0
   32.3334   65.1317    9.6753 O   0  0  0  0  0  0  0  0  0  0  0  0
   28.6906   66.2077    8.9075 C   0  0  1  0  0  0  0  0  0  0  0  0
   29.9205   65.9152    9.7743 C   0  0  0  0  0  0  0  0  0  0  0  0
   27.4111   66.2499    9.4735 C   0  0  0  0  0  0  0  0  0  0  0  0
   26.3926   66.3852    8.5032 C   0  0  2  0  0  0  0  0  0  0  0  0
   25.0324   66.2693    9.0010 C   0  0  1  0  0  0  0  0  0  0  0  0
   26.6241   66.3031    7.1477 C   0  0  0  0  0  0  0  0  0  0  0  0
   24.1887   65.2326    8.7645 C   0  0  0  0  0  0  0  0  0  0  0  0
   24.8757   66.4408   10.5338 O   0  0  0  0  0  0  0  0  0  0  0  0
   23.9070   64.3867    9.8507 O   0  0  0  0  0  0  0  0  0  0  0  0
   24.3158   65.2428   11.0459 C   0  0  0  0  0  0  0  0  0  0  0  0
  1  2  1  0
  2  3  1  6
  4  2  1  6
  1  5  1  0
  4  6  1  0
  6  5  1  1
  4  7  1  0
  6  8  1  0
  8  9  1  1
  7 10  1  6
  8 11  1  0
  7 12  1  0
 11 12  1  1
 11 13  1  0
 14 13  1  1
 14 15  1  0
  9 16  1  0
 14 16  1  0
 15 17  1  1
 15 18  1  0
 17 19  1  0
 18 20  1  0
 19 20  1  0
M  END
$$$$
84
     RDKit          3D

 20 20  0  0  0  0  0  0  0  0999 V2000
   29.1201   63.4221   13.8292 O   0  0  0  0  0  0  0  0  0  0  0  0
   28.2869   64.2333   13.4680 C   0  0  0  0  0  0  0  0  0  0  0  0
   28.6302   65.1646   12.4665 N   0  0  0  0  0  0  0  0  0  0  0  0
   27.0219   64.5331   14.1097 C   0  0  0  0  0  0  0  0  0  0  0  0
   26.6627   63.7478   15.0480 O   0  0  0  0  0  0  0  0  0  0  0  0
   26.2610   65.0644   13.3058 O   0  0  0  0  0  0  0  0  0  0  0  0
   29.0769   64.7311   11.1670 C   0  0  0  0  0  0  0  0  0  0  0  0
   28.7167   65.4691   10.1095 C   0  0  1  0  0  0  0  0  0  0  0  0
   29.9760   65.8917    9.2605 C   0  0  1  0  0  0  0  0  0  0  0  0
   27.8563   64.7529    9.1813 O   0  0  0  0  0  0  0  0  0  0  0  0
   26.4865   64.7938    9.5034 C   0  0  0  0  0  0  0  0  0  0  0  0
   29.8086   66.3538    7.9810 C   0  0  2  0  0  0  0  0  0  0  0  0
   31.1928   65.9944    9.8488 C   0  0  0  0  0  0  0  0  0  0  0  0
   30.9151   66.8099    7.2186 C   0  0  2  0  0  0  0  0  0  0  0  0
   30.8001   67.2095    5.8239 O   0  0  0  0  0  0  0  0  0  0  0  0
   28.5227   66.8243    7.2001 C   0  0  0  0  0  0  0  0  0  0  0  0
   32.3432   66.2737    9.0062 C   0  0  2  0  0  0  0  0  0  0  0  0
   33.6671   66.1914    9.6018 O   0  0  0  0  0  0  0  0  0  0  0  0
   32.1873   66.7335    7.7311 C   0  0  0  0  0  0  0  0  0  0  0  0
   33.3405   67.1558    6.8859 O   0  0  0  0  0  0  0  0  0  0  0  0
  1  2  2  0
  2  3  1  0
  2  4  1  0
  4  5  1  0
  4  6  2  0
  3  7  1  0
  8  7  1  1
  8  9  1  0
  8 10  1  0
 10 11  1  0
  9 12  1  0
  9 13  1  1
 12 14  1  0
 14 15  1  6
 12 16  1  1
 13 17  1  0
 17 18  1  1
 14 19  1  0
 17 19  1  0
 19 20  1  0
M  END
$$$$
85
     RDKit          3D

 20 22  0  0  0  0  0  0  0  0999 V2000
   32.5779   67.4165    6.5407 N   0  0  0  0  0  0  0  0  0  0  0  0
   32.8694   66.6760    7.6722 C   0  0  2  0  0  0  0  0  0  0  0  0
   34.0366   66.2132    7.9044 O   0  0  0  0  0  0  0  0  0  0  0  0
   31.2515   67.5470    6.2599 C   0  0  0  0  0  0  0  0  0  0  0  0
   31.6820   66.0160    8.3427 C   0  0  2  0  0  0  0  0  0  0  0  0
   31.9992   65.3526    9.6348 N   0  0  0  0  0  0  0  0  0  0  0  0
   30.5338   65.9401    7.7924 C   0  0  2  0  0  0  0  0  0  0  0  0
   30.2422   66.7903    6.7562 C   0  0  0  0  0  0  0  0  0  0  0  0
   30.6802   65.0097   10.0612 C   0  0  1  0  0  0  0  0  0  0  0  0
   28.8626   66.8370    6.2027 C   0  0  0  0  0  0  0  0  0  0  0  0
   30.3306   64.4603   11.1642 N   0  0  0  0  0  0  0  0  0  0  0  0
   29.2136   64.6039   11.9126 C   0  0  0  0  0  0  0  0  0  0  0  0
   29.7256   65.6652    9.0839 C   0  0  2  0  0  0  0  0  0  0  0  0
   27.7260   66.4845    7.0781 C   0  0  0  0  0  0  0  0  0  0  0  0
   28.1129   65.8900    8.3891 C   0  0  0  0  0  0  0  0  0  0  0  0
   28.1344   65.3054   11.5788 O   0  0  0  0  0  0  0  0  0  0  0  0
   29.1053   63.9437   13.1763 N   0  0  0  0  0  0  0  0  0  0  0  0
   27.9581   63.5950   13.9507 C   0  0  0  0  0  0  0  0  0  0  0  0
   27.0055   64.5076   14.0262 C   0  0  0  0  0  0  0  0  0  0  0  0
   26.4589   64.5465   15.3581 N   0  0  0  0  0  0  0  0  0  0  0  0
  1  2  1  0
  2  3  1  6
  1  4  1  0
  2  5  1  0
  5  6  1  6
  5  7  1  0
  4  8  1  0
  7  8  1  1
  6  9  1  0
  8 10  1  0
  9 11  1  1
 11 12  1  0
  7 13  1  0
  9 13  1  0
 10 14  1  0
 13 15  1  6
 14 15  2  0
 12 16  2  0
 12 17  1  0
 17 18  1  0
 18 19  1  0
 19 20  1  0
M  END
$$$$
86
     RDKit          3D

 20 21  0  0  0  0  0  0  0  0999 V2000
   31.8855   67.5502    6.0072 O   0  0  0  0  0  0  0  0  0  0  0  0
   31.4276   66.6777    6.9140 C   0  0  2  0  0  0  0  0  0  0  0  0
   30.0670   66.5588    7.1794 C   0  0  1  0  0  0  0  0  0  0  0  0
   32.4118   66.3903    7.9567 C   0  0  1  0  0  0  0  0  0  0  0  0
   29.0800   66.8566    6.1230 C   0  0  0  0  0  0  0  0  0  0  0  0
   29.8014   65.8209    8.2790 O   0  0  0  0  0  0  0  0  0  0  0  0
   27.7160   66.6046    6.7278 O   0  0  0  0  0  0  0  0  0  0  0  0
   33.7789   66.5582    7.7248 O   0  0  0  0  0  0  0  0  0  0  0  0
   32.1034   66.1778    9.2051 C   0  0  1  0  0  0  0  0  0  0  0  0
   30.6761   65.8450    9.4315 C   0  0  2  0  0  0  0  0  0  0  0  0
   32.9529   65.3391    9.9141 O   0  0  0  0  0  0  0  0  0  0  0  0
   30.1894   65.4696   10.6485 N   0  0  0  0  0  0  0  0  0  0  0  0
   28.9194   65.5632   11.1690 C   0  0  0  0  0  0  0  0  0  0  0  0
   28.1199   66.2667   10.6960 O   0  0  0  0  0  0  0  0  0  0  0  0
   28.6007   65.0728   12.4600 C   0  0  1  0  0  0  0  0  0  0  0  0
   28.3703   63.6264   12.4577 C   0  0  0  0  0  0  0  0  0  0  0  0
   28.1697   63.0060   13.7257 C   0  0  0  0  0  0  0  0  0  0  0  0
   29.7328   65.1902   13.4809 N   0  0  0  0  0  0  0  0  0  0  0  0
   27.8058   64.1519   14.6767 N   0  0  0  0  0  0  0  0  0  0  0  0
   29.0136   65.1134   14.7197 C   0  0  0  0  0  0  0  0  0  0  0  0
  2  1  1  1
  2  3  1  0
  2  4  1  0
  3  5  1  6
  3  6  1  0
  5  7  1  0
  4  8  1  1
  4  9  1  0
  6 10  1  0
  9 10  1  0
  9 11  1  6
 10 12  1  6
 12 13  1  0
 13 14  2  0
 15 13  1  6
 15 16  1  0
 16 17  1  0
 15 18  1  0
 17 19  1  0
 18 20  1  0
 19 20  1  0
M  END
$$$$
87
     RDKit          3D

 20 21  0  0  0  0  0  0  0  0999 V2000
   31.8855   67.5502    6.0072 O   0  0  0  0  0  0  0  0  0  0  0  0
   31.4276   66.6777    6.9140 C   0  0  2  0  0  0  0  0  0  0  0  0
   30.0670   66.5588    7.1794 C   0  0  1  0  0  0  0  0  0  0  0  0
   32.4118   66.3903    7.9567 C   0  0  1  0  0  0  0  0  0  0  0  0
   29.0800   66.8566    6.1230 C   0  0  0  0  0  0  0  0  0  0  0  0
   29.8014   65.8209    8.2790 O   0  0  0  0  0  0  0  0  0  0  0  0
   27.7160   66.6046    6.7278 O   0  0  0  0  0  0  0  0  0  0  0  0
   33.7789   66.5582    7.7248 O   0  0  0  0  0  0  0  0  0  0  0  0
   32.1034   66.1778    9.2051 C   0  0  1  0  0  0  0  0  0  0  0  0
   30.6761   65.8450    9.4315 C   0  0  2  0  0  0  0  0  0  0  0  0
   32.9529   65.3391    9.9141 O   0  0  0  0  0  0  0  0  0  0  0  0
   30.1894   65.4696   10.6485 N   0  0  0  0  0  0  0  0  0  0  0  0
   28.9194   65.5632   11.1690 C   0  0  0  0  0  0  0  0  0  0  0  0
   28.1199   66.2667   10.6960 O   0  0  0  0  0  0  0  0  0  0  0  0
   28.6007   65.0728   12.4600 C   0  0  0  0  0  0  0  0  0  0  0  0
   28.3703   63.6264   12.4577 C   0  0  0  0  0  0  0  0  0  0  0  0
   28.1697   63.0060   13.7257 C   0  0  0  0  0  0  0  0  0  0  0  0
   28.6121   65.7029   13.6432 C   0  0  0  0  0  0  0  0  0  0  0  0
   28.2640   65.1247   14.7020 C   0  0  0  0  0  0  0  0  0  0  0  0
   27.9580   63.7975   14.8615 N   0  0  0  0  0  0  0  0  0  0  0  0
  2  1  1  1
  2  3  1  0
  2  4  1  0
  3  5  1  6
  3  6  1  0
  5  7  1  0
  4  8  1  1
  4  9  1  0
  6 10  1  0
  9 10  1  0
  9 11  1  6
 10 12  1  6
 12 13  1  0
 13 14  2  0
 13 15  1  0
 15 16  1  0
 16 17  1  0
 15 18  1  0
 18 19  1  0
 17 20  1  0
 19 20  1  0
M  END
$$$$
88
     RDKit          3D

 20 22  0  0  0  0  0  0  0  0999 V2000
   33.6942   66.2004    7.3852 O   0  0  0  0  0  0  0  0  0  0  0  0
   32.5292   66.8086    7.4600 C   0  0  1  0  0  0  0  0  0  0  0  0
   31.9308   67.1940    6.2806 C   0  0  0  0  0  0  0  0  0  0  0  0
   30.4318   67.0704    6.4081 C   0  0  0  0  0  0  0  0  0  0  0  0
   29.8039   66.6669    7.5054 C   0  0  0  0  0  0  0  0  0  0  0  0
   28.3139   66.6943    7.5470 C   0  0  0  0  0  0  0  0  0  0  0  0
   27.6180   66.5179    6.4892 O   0  0  0  0  0  0  0  0  0  0  0  0
   30.3940   66.2162    8.6810 C   0  0  2  0  0  0  0  0  0  0  0  0
   29.6409   65.8948    9.8223 C   0  0  1  0  0  0  0  0  0  0  0  0
   30.4779   65.5328   10.9355 N   0  0  0  0  0  0  0  0  0  0  0  0
   31.8752   66.3506    8.7436 C   0  0  1  0  0  0  0  0  0  0  0  0
   28.4139   66.0350    9.6849 C   0  0  1  0  0  0  0  0  0  0  0  0
   32.6317   66.0345    9.8033 O   0  0  0  0  0  0  0  0  0  0  0  0
   29.5931   64.7857   11.8948 C   0  0  0  0  0  0  0  0  0  0  0  0
   27.6015   65.6775   10.9160 C   0  0  0  0  0  0  0  0  0  0  0  0
   28.1605   65.1208   11.8615 C   0  0  1  0  0  0  0  0  0  0  0  0
   27.3533   64.6161   13.0496 C   0  0  0  0  0  0  0  0  0  0  0  0
   27.6319   66.6002    8.6924 N   0  0  0  0  0  0  0  0  0  0  0  0
   27.9371   63.8288   14.0434 N   0  0  0  0  0  0  0  0  0  0  0  0
   26.1788   64.9735   13.2658 O   0  0  0  0  0  0  0  0  0  0  0  0
  2  1  1  6
  2  3  1  0
  3  4  1  0
  4  5  1  0
  5  6  1  0
  6  7  2  0
  8  5  1  1
  8  9  1  0
  9 10  1  1
  2 11  1  0
  8 11  1  0
  9 12  1  0
 11 13  1  6
 10 14  1  0
 12 15  1  1
 14 16  1  0
 15 16  1  0
 16 17  1  6
  6 18  1  0
 12 18  1  0
 17 19  1  0
 17 20  2  0
M  END
$$$$
89
     RDKit          3D

 20 21  0  0  0  0  0  0  0  0999 V2000
   31.8855   67.5502    6.0072 O   0  0  0  0  0  0  0  0  0  0  0  0
   31.4276   66.6777    6.9140 C   0  0  1  0  0  0  0  0  0  0  0  0
   32.2870   66.6230    8.0667 C   0  0  1  0  0  0  0  0  0  0  0  0
   31.7949   66.1065    9.2722 C   0  0  2  0  0  0  0  0  0  0  0  0
   33.6965   66.7997    7.9687 O   0  0  0  0  0  0  0  0  0  0  0  0
   30.3707   65.9573    9.3445 C   0  0  2  0  0  0  0  0  0  0  0  0
   32.5050   66.3292   10.4713 O   0  0  0  0  0  0  0  0  0  0  0  0
   29.7893   65.3692   10.2632 C   0  0  0  0  0  0  0  0  0  0  0  0
   28.9317   66.0453   11.2051 C   0  0  0  0  0  0  0  0  0  0  0  0
   29.5977   66.2576    8.1094 C   0  0  2  0  0  0  0  0  0  0  0  0
   30.0323   67.0143    7.0590 C   0  0  2  0  0  0  0  0  0  0  0  0
   29.1672   66.8206    5.9289 O   0  0  0  0  0  0  0  0  0  0  0  0
   28.1707   65.9247    8.2102 O   0  0  0  0  0  0  0  0  0  0  0  0
   28.5647   65.3508   12.4537 C   0  0  2  0  0  0  0  0  0  0  0  0
   29.2761   64.0692   12.6196 N   0  0  0  0  0  0  0  0  0  0  0  0
   28.6441   63.0357   13.2989 C   0  0  0  0  0  0  0  0  0  0  0  0
   27.3493   63.3027   13.5275 C   0  0  0  0  0  0  0  0  0  0  0  0
   27.3235   65.5297   13.0246 C   0  0  2  0  0  0  0  0  0  0  0  0
   26.8899   66.8483   13.1191 C   0  0  0  0  0  0  0  0  0  0  0  0
   26.7374   64.4880   13.6932 C   0  0  0  0  0  0  0  0  0  0  0  0
  2  1  1  6
  2  3  1  0
  3  4  1  0
  3  5  1  6
  4  6  1  0
  4  7  1  1
  6  8  1  6
  8  9  1  0
  6 10  1  0
  2 11  1  0
 10 11  1  0
 11 12  1  6
 10 13  1  1
 14  9  1  6
 14 15  1  0
 15 16  1  0
 16 17  1  0
 14 18  1  0
 18 19  1  1
 17 20  1  0
 18 20  1  0
M  END
$$$$
9
     RDKit          3D

 13 14  0  0  0  0  0  0  0  0999 V2000
   33.6942   66.2004    7.3852 O   0  0  0  0  0  0  0  0  0  0  0  0
   32.5292   66.8086    7.4600 C   0  0  1  0  0  0  0  0  0  0  0  0
   31.9308   67.1940    6.2806 C   0  0  0  0  0  0  0  0  0  0  0  0
   30.4318   67.0704    6.4081 C   0  0  0  0  0  0  0  0  0  0  0  0
   29.8039   66.6669    7.5054 C   0  0  0  0  0  0  0  0  0  0  0  0
   28.3139   66.6943    7.5470 C   0  0  0  0  0  0  0  0  0  0  0  0
   27.6180   66.5179    6.4892 O   0  0  0  0  0  0  0  0  0  0  0  0
   30.3940   66.2162    8.6810 C   0  0  2  0  0  0  0  0  0  0  0  0
   27.7150   66.8105    8.7107 N   0  0  0  0  0  0  0  0  0  0  0  0
   28.3288   66.4940    9.9115 C   0  0  0  0  0  0  0  0  0  0  0  0
   31.8500   65.9505    8.5916 C   0  0  2  0  0  0  0  0  0  0  0  0
   32.4027   66.0970    9.9558 N   0  0  0  0  0  0  0  0  0  0  0  0
   29.6896   65.9110    9.8853 C   0  0  0  0  0  0  0  0  0  0  0  0
  2  1  1  6
  2  3  1  0
  3  4  1  0
  4  5  1  0
  5  6  1  0
  6  7  2  0
  5  8  1  0
  6  9  1  0
  9 10  1  0
  2 11  1  0
  8 11  1  0
 11 12  1  1
  8 13  1  6
 10 13  1  0
M  END
$$$$
90
     RDKit          3D

 20 21  0  0  0  0  0  0  0  0999 V2000
   33.4806   66.0184    6.9440 O   0  0  0  0  0  0  0  0  0  0  0  0
   32.4302   66.8734    7.2195 C   0  0  1  0  0  0  0  0  0  0  0  0
   31.7933   67.3288    6.1072 C   0  0  0  0  0  0  0  0  0  0  0  0
   30.2882   67.0145    6.3196 C   0  0  0  0  0  0  0  0  0  0  0  0
   31.6157   66.2626    8.3424 C   0  0  2  0  0  0  0  0  0  0  0  0
   30.2260   66.4056    7.7430 C   0  0  2  0  0  0  0  0  0  0  0  0
   31.7804   66.7444    9.7064 C   0  0  0  0  0  0  0  0  0  0  0  0
   32.9622   65.9377   10.3306 N   0  0  0  0  0  0  0  0  0  0  0  0
   29.1621   67.0949    5.6653 C   0  0  0  0  0  0  0  0  0  0  0  0
   29.1150   65.5191    7.8790 C   0  0  1  0  0  0  0  0  0  0  0  0
   28.6455   65.2737    9.2453 O   0  0  0  0  0  0  0  0  0  0  0  0
   29.1524   64.9692   10.2413 C   0  0  0  0  0  0  0  0  0  0  0  0
   28.1193   66.5835    6.5362 C   0  0  0  0  0  0  0  0  0  0  0  0
   28.3526   64.5806   11.2774 C   0  0  1  0  0  0  0  0  0  0  0  0
   29.0918   64.5362   12.5631 C   0  0  0  0  0  0  0  0  0  0  0  0
   27.1731   65.3641   11.5077 O   0  0  0  0  0  0  0  0  0  0  0  0
   30.3793   65.3034   10.5199 O   0  0  0  0  0  0  0  0  0  0  0  0
   27.8613   65.6853    7.3213 C   0  0  0  0  0  0  0  0  0  0  0  0
   28.2900   64.0242   13.6642 C   0  0  0  0  0  0  0  0  0  0  0  0
   27.3586   62.8228   13.0160 N   0  0  0  0  0  0  0  0  0  0  0  0
  2  1  1  6
  2  3  1  0
  3  4  1  0
  2  5  1  0
  6  4  1  6
  5  6  1  0
  5  7  1  1
  7  8  1  0
  4  9  1  0
  6 10  1  0
 10 11  1  1
 11 12  1  0
  9 13  1  0
 12 14  1  0
 14 15  1  0
 14 16  1  1
 12 17  2  0
 10 18  1  0
 13 18  1  0
 15 19  1  0
 19 20  1  0
M  END
$$$$
91
     RDKit          3D

 20 23  0  0  0  0  0  0  0  0999 V2000
   25.7378   65.3272    7.6438 C   0  0  0  0  0  0  0  0  0  0  0  0
   26.7717   66.1068    8.1076 C   0  0  0  0  0  0  0  0  0  0  0  0
   25.0271   64.6489    8.3685 C   0  0  1  0  0  0  0  0  0  0  0  0
   27.1466   65.9761    9.4486 C   0  0  2  0  0  0  0  0  0  0  0  0
   25.1735   64.5539    9.7299 C   0  0  0  0  0  0  0  0  0  0  0  0
   23.9063   63.9496    7.7321 O   0  0  0  0  0  0  0  0  0  0  0  0
   26.2405   65.2464   10.2777 C   0  0  1  0  0  0  0  0  0  0  0  0
   26.6102   65.0835   11.7119 C   0  0  2  0  0  0  0  0  0  0  0  0
   28.2966   66.8055   10.0423 C   0  0  0  0  0  0  0  0  0  0  0  0
   28.4538   66.7492   11.3594 C   0  0  0  0  0  0  0  0  0  0  0  0
   27.6651   65.9462   12.2128 C   0  0  0  0  0  0  0  0  0  0  0  0
   29.5635   67.5877   11.9505 C   0  0  0  0  0  0  0  0  0  0  0  0
   27.8293   65.9515   13.7785 C   0  0  2  0  0  0  0  0  0  0  0  0
   28.9746   66.7415   14.1312 C   0  0  0  0  0  0  0  0  0  0  0  0
   29.6250   67.5094   13.3053 N   0  0  0  0  0  0  0  0  0  0  0  0
   27.5087   64.7050   14.3389 C   0  0  0  0  0  0  0  0  0  0  0  0
   29.2180   66.9775   15.4295 O   0  0  0  0  0  0  0  0  0  0  0  0
   27.0862   64.6711   15.5457 O   0  0  0  0  0  0  0  0  0  0  0  0
   27.5663   63.5488   13.6315 C   0  0  0  0  0  0  0  0  0  0  0  0
   26.5803   63.7407   12.3720 C   0  0  0  0  0  0  0  0  0  0  0  0
  1  2  1  0
  1  3  1  0
  4  2  1  1
  3  5  1  0
  3  6  1  1
  4  7  1  0
  7  5  1  6
  7  8  1  0
  4  9  1  0
  9 10  1  0
  8 11  1  0
 10 11  1  0
 10 12  1  0
 11 13  1  0
 13 14  1  6
 12 15  1  0
 14 15  1  0
 13 16  1  0
 14 17  2  0
 16 18  1  0
 16 19  2  0
  8 20  1  6
 19 20  1  0
M  END
$$$$
92
     RDKit          3D

 20 22  0  0  0  0  0  0  0  0999 V2000
   32.5779   67.4165    6.5407 N   0  0  0  0  0  0  0  0  0  0  0  0
   32.8694   66.6760    7.6722 C   0  0  2  0  0  0  0  0  0  0  0  0
   34.0366   66.2132    7.9044 O   0  0  0  0  0  0  0  0  0  0  0  0
   31.2515   67.5470    6.2599 C   0  0  0  0  0  0  0  0  0  0  0  0
   31.6820   66.0160    8.3427 C   0  0  2  0  0  0  0  0  0  0  0  0
   31.9992   65.3526    9.6348 N   0  0  0  0  0  0  0  0  0  0  0  0
   30.5338   65.9401    7.7924 C   0  0  2  0  0  0  0  0  0  0  0  0
   30.2422   66.7903    6.7562 C   0  0  0  0  0  0  0  0  0  0  0  0
   30.6802   65.0097   10.0612 C   0  0  1  0  0  0  0  0  0  0  0  0
   28.8626   66.8370    6.2027 C   0  0  0  0  0  0  0  0  0  0  0  0
   30.3306   64.4603   11.1642 N   0  0  0  0  0  0  0  0  0  0  0  0
   29.2136   64.6039   11.9126 C   0  0  0  0  0  0  0  0  0  0  0  0
   29.7256   65.6652    9.0839 C   0  0  2  0  0  0  0  0  0  0  0  0
   27.7260   66.4845    7.0781 C   0  0  0  0  0  0  0  0  0  0  0  0
   28.1129   65.8900    8.3891 C   0  0  0  0  0  0  0  0  0  0  0  0
   28.1344   65.3054   11.5788 O   0  0  0  0  0  0  0  0  0  0  0  0
   29.1053   63.9437   13.1763 C   0  0  0  0  0  0  0  0  0  0  0  0
   27.7449   63.5556   13.7651 C   0  0  0  0  0  0  0  0  0  0  0  0
   27.2676   64.3244   14.8012 C   0  0  0  0  0  0  0  0  0  0  0  0
   25.8440   64.4384   14.8798 N   0  0  0  0  0  0  0  0  0  0  0  0
  1  2  1  0
  2  3  1  6
  1  4  1  0
  2  5  1  0
  5  6  1  6
  5  7  1  0
  4  8  1  0
  7  8  1  1
  6  9  1  0
  8 10  1  0
  9 11  1  1
 11 12  1  0
  7 13  1  0
  9 13  1  0
 10 14  1  0
 13 15  1  6
 14 15  2  0
 12 16  2  0
 12 17  1  0
 17 18  1  0
 18 19  1  0
 19 20  1  0
M  END
$$$$
93
     RDKit          3D

 20 23  0  0  0  0  0  0  0  0999 V2000
   25.7378   65.3272    7.6438 C   0  0  0  0  0  0  0  0  0  0  0  0
   26.7717   66.1068    8.1076 C   0  0  1  0  0  0  0  0  0  0  0  0
   25.0271   64.6489    8.3685 C   0  0  0  0  0  0  0  0  0  0  0  0
   25.1957   64.5473    9.7366 C   0  0  0  0  0  0  0  0  0  0  0  0
   26.2456   65.2980   10.2941 C   0  0  0  0  0  0  0  0  0  0  0  0
   27.0569   66.0838    9.4891 C   0  0  1  0  0  0  0  0  0  0  0  0
   28.2262   66.6451   10.0171 C   0  0  0  0  0  0  0  0  0  0  0  0
   29.5053   66.4149    9.4281 C   0  0  2  0  0  0  0  0  0  0  0  0
   30.6145   66.0615   10.2408 N   0  0  0  0  0  0  0  0  0  0  0  0
   31.6649   65.6227    9.8414 C   0  0  0  0  0  0  0  0  0  0  0  0
   29.8458   66.9108    8.1168 C   0  0  2  0  0  0  0  0  0  0  0  0
   28.8845   67.3992    7.2065 C   0  0  0  0  0  0  0  0  0  0  0  0
   27.7055   66.4280    6.9723 C   0  0  0  0  0  0  0  0  0  0  0  0
   32.6548   65.3368   10.5089 O   0  0  0  0  0  0  0  0  0  0  0  0
   31.2420   66.7515    7.6311 C   0  0  0  0  0  0  0  0  0  0  0  0
   31.6526   67.0498    6.3170 C   0  0  0  0  0  0  0  0  0  0  0  0
   32.8955   66.8697    6.0582 N   0  0  0  0  0  0  0  0  0  0  0  0
   32.2268   66.2760    8.4555 C   0  0  0  0  0  0  0  0  0  0  0  0
   33.6555   66.5143    7.1943 C   0  0  0  0  0  0  0  0  0  0  0  0
   33.3987   66.2153    8.3352 N   0  0  0  0  0  0  0  0  0  0  0  0
  2  1  1  6
  1  3  1  0
  3  4  1  0
  4  5  1  0
  2  6  1  0
  6  5  1  6
  6  7  1  0
  8  7  1  1
  8  9  1  0
  9 10  1  0
  8 11  1  0
 11 12  1  6
  2 13  1  0
 12 13  1  0
 10 14  2  0
 11 15  1  0
 15 16  1  0
 16 17  1  0
 10 18  1  0
 15 18  1  0
 17 19  1  0
 18 20  1  0
 19 20  1  0
M  END
$$$$
94
     RDKit          3D

 20 22  0  0  0  0  0  0  0  0999 V2000
   32.5779   67.4165    6.5407 N   0  0  0  0  0  0  0  0  0  0  0  0
   32.8694   66.6760    7.6722 C   0  0  2  0  0  0  0  0  0  0  0  0
   34.0366   66.2132    7.9044 O   0  0  0  0  0  0  0  0  0  0  0  0
   31.2515   67.5470    6.2599 C   0  0  0  0  0  0  0  0  0  0  0  0
   31.6820   66.0160    8.3427 C   0  0  2  0  0  0  0  0  0  0  0  0
   31.9992   65.3526    9.6348 N   0  0  0  0  0  0  0  0  0  0  0  0
   30.5338   65.9401    7.7924 C   0  0  2  0  0  0  0  0  0  0  0  0
   30.2422   66.7903    6.7562 C   0  0  0  0  0  0  0  0  0  0  0  0
   30.6802   65.0097   10.0612 C   0  0  0  0  0  0  0  0  0  0  0  0
   28.8626   66.8370    6.2027 C   0  0  0  0  0  0  0  0  0  0  0  0
   30.3306   64.4603   11.1642 N   0  0  0  0  0  0  0  0  0  0  0  0
   29.6825   65.3954    8.9420 C   0  0  0  0  0  0  0  0  0  0  0  0
   29.0556   64.0130   11.4837 C   0  0  1  0  0  0  0  0  0  0  0  0
   28.7692   63.6713   12.8310 C   0  0  1  0  0  0  0  0  0  0  0  0
   28.0436   64.5095   13.6502 C   0  0  2  0  0  0  0  0  0  0  0  0
   27.4682   63.9283   14.8423 N   0  0  0  0  0  0  0  0  0  0  0  0
   26.7721   65.0154   12.9240 O   0  0  0  0  0  0  0  0  0  0  0  0
   27.9878   62.3864   12.8812 O   0  0  0  0  0  0  0  0  0  0  0  0
   27.7742   65.0026   11.4050 C   0  0  0  0  0  0  0  0  0  0  0  0
   27.0302   65.6342   11.7869 C   0  0  0  0  0  0  0  0  0  0  0  0
  1  2  1  0
  2  3  1  6
  1  4  1  0
  2  5  1  0
  5  6  1  6
  5  7  1  0
  4  8  1  0
  7  8  1  0
  6  9  1  0
  8 10  1  0
  9 11  1  0
  7 12  1  1
  9 12  1  0
 13 11  1  1
 13 14  1  0
 14 15  1  0
 15 16  1  1
 15 17  1  0
 14 18  1  6
 13 19  1  0
 17 20  1  0
 19 20  2  0
M  END
$$$$
95
     RDKit          3D

 20 22  0  0  0  0  0  0  0  0999 V2000
   33.6942   66.2004    7.3852 O   0  0  0  0  0  0  0  0  0  0  0  0
   32.5292   66.8086    7.4600 C   0  0  2  0  0  0  0  0  0  0  0  0
   31.6837   66.1778    8.4615 C   0  0  1  0  0  0  0  0  0  0  0  0
   31.7955   66.7485    6.1941 C   0  0  0  0  0  0  0  0  0  0  0  0
   32.2235   66.1947    9.7870 N   0  0  0  0  0  0  0  0  0  0  0  0
   30.3208   66.7341    8.4655 C   0  0  1  0  0  0  0  0  0  0  0  0
   30.3800   67.1925    6.3255 N   0  0  0  0  0  0  0  0  0  0  0  0
   29.6346   66.4547    7.1916 C   0  0  1  0  0  0  0  0  0  0  0  0
   29.5075   65.0257    6.8436 O   0  0  0  0  0  0  0  0  0  0  0  0
   29.5631   65.9784    9.6201 C   0  0  2  0  0  0  0  0  0  0  0  0
   28.3969   66.6517   10.0655 O   0  0  0  0  0  0  0  0  0  0  0  0
   30.2278   65.5316   10.7967 N   0  0  0  0  0  0  0  0  0  0  0  0
   31.6619   65.2508   10.6922 C   0  0  0  0  0  0  0  0  0  0  0  0
   27.3826   65.9573   10.5917 C   0  0  2  0  0  0  0  0  0  0  0  0
   29.3932   64.6133   11.5490 C   0  0  2  0  0  0  0  0  0  0  0  0
   26.1878   66.6550   10.7900 C   0  0  0  0  0  0  0  0  0  0  0  0
   28.0169   65.0749   11.5984 C   0  0  2  0  0  0  0  0  0  0  0  0
   25.2288   65.8687   11.4576 O   0  0  0  0  0  0  0  0  0  0  0  0
   27.1123   63.9128   11.9484 O   0  0  0  0  0  0  0  0  0  0  0  0
   29.6998   64.4665   12.9280 O   0  0  0  0  0  0  0  0  0  0  0  0
  2  1  1  6
  2  3  1  0
  2  4  1  0
  3  5  1  1
  3  6  1  0
  4  7  1  0
  6  8  1  6
  7  8  1  0
  8  9  1  6
  6 10  1  0
 10 11  1  1
 10 12  1  0
  5 13  1  0
 12 13  1  0
 11 14  1  0
 12 15  1  0
 14 16  1  1
 14 17  1  0
 15 17  1  0
 16 18  1  0
 17 19  1  6
 15 20  1  1
M  END
$$$$
96
     RDKit          3D

 20 22  0  0  0  0  0  0  0  0999 V2000
   32.5779   67.4165    6.5407 N   0  0  0  0  0  0  0  0  0  0  0  0
   32.8694   66.6760    7.6722 C   0  0  2  0  0  0  0  0  0  0  0  0
   34.0366   66.2132    7.9044 O   0  0  0  0  0  0  0  0  0  0  0  0
   31.2515   67.5470    6.2599 C   0  0  0  0  0  0  0  0  0  0  0  0
   31.6820   66.0160    8.3427 C   0  0  2  0  0  0  0  0  0  0  0  0
   31.9992   65.3526    9.6348 N   0  0  0  0  0  0  0  0  0  0  0  0
   30.5338   65.9401    7.7924 C   0  0  2  0  0  0  0  0  0  0  0  0
   30.2422   66.7903    6.7562 C   0  0  0  0  0  0  0  0  0  0  0  0
   30.6802   65.0097   10.0612 C   0  0  1  0  0  0  0  0  0  0  0  0
   28.8626   66.8370    6.2027 C   0  0  0  0  0  0  0  0  0  0  0  0
   30.3306   64.4603   11.1642 N   0  0  0  0  0  0  0  0  0  0  0  0
   29.2136   64.6039   11.9126 C   0  0  0  0  0  0  0  0  0  0  0  0
   29.7256   65.6652    9.0839 C   0  0  2  0  0  0  0  0  0  0  0  0
   27.7260   66.4845    7.0781 C   0  0  0  0  0  0  0  0  0  0  0  0
   28.1129   65.8900    8.3891 C   0  0  0  0  0  0  0  0  0  0  0  0
   28.1344   65.3054   11.5788 O   0  0  0  0  0  0  0  0  0  0  0  0
   29.1053   63.9437   13.1763 C   0  0  0  0  0  0  0  0  0  0  0  0
   27.7449   63.5556   13.7651 C   0  0  0  0  0  0  0  0  0  0  0  0
   27.2676   64.3244   14.8012 C   0  0  0  0  0  0  0  0  0  0  0  0
   26.8191   65.5854   14.3905 O   0  0  0  0  0  0  0  0  0  0  0  0
  1  2  1  0
  2  3  1  6
  1  4  1  0
  2  5  1  0
  5  6  1  6
  5  7  1  0
  4  8  1  0
  7  8  1  1
  6  9  1  0
  8 10  1  0
  9 11  1  1
 11 12  1  0
  7 13  1  0
  9 13  1  0
 10 14  1  0
 13 15  1  6
 14 15  2  0
 12 16  2  0
 12 17  1  0
 17 18  1  0
 18 19  1  0
 19 20  1  0
M  END
$$$$
97
     RDKit          3D

 21 23  0  0  0  0  0  0  0  0999 V2000
   33.6183   66.0059    7.4162 O   0  0  0  0  0  0  0  0  0  0  0  0
   32.6565   66.5888    8.1501 C   0  0  1  0  0  0  0  0  0  0  0  0
   31.4523   66.7387    7.3552 C   0  0  0  0  0  0  0  0  0  0  0  0
   30.2234   66.5194    7.9191 C   0  0  0  0  0  0  0  0  0  0  0  0
   31.5122   67.1165    5.9986 O   0  0  0  0  0  0  0  0  0  0  0  0
   32.6060   66.2478    9.4978 C   0  0  0  0  0  0  0  0  0  0  0  0
   31.2843   66.0254    9.9935 N   0  0  0  0  0  0  0  0  0  0  0  0
   30.1287   66.1555    9.2927 C   0  0  0  0  0  0  0  0  0  0  0  0
   28.9133   65.9053   10.1384 C   0  0  2  0  0  0  0  0  0  0  0  0
   28.9753   65.1804   11.1900 C   0  0  0  0  0  0  0  0  0  0  0  0
   28.8035   66.5990    7.4651 C   0  0  0  0  0  0  0  0  0  0  0  0
   27.6804   66.3294    8.0883 C   0  0  0  0  0  0  0  0  0  0  0  0
   27.7137   65.5856    9.3515 C   0  0  2  0  0  0  0  0  0  0  0  0
   26.4123   65.6913   10.0435 C   0  0  0  0  0  0  0  0  0  0  0  0
   26.5337   64.9250   11.3862 C   0  0  0  0  0  0  0  0  0  0  0  0
   29.9054   65.2687   12.2148 O   0  0  0  0  0  0  0  0  0  0  0  0
   27.8055   65.0139   12.1178 N   0  0  0  0  0  0  0  0  0  0  0  0
   27.8675   64.0331   13.2244 C   0  0  1  0  0  0  0  0  0  0  0  0
   27.0378   64.3878   14.2876 C   0  0  0  0  0  0  0  0  0  0  0  0
   27.4871   64.1509   15.6180 O   0  0  0  0  0  0  0  0  0  0  0  0
   27.4906   62.6681   12.6719 O   0  0  0  0  0  0  0  0  0  0  0  0
  2  1  1  6
  2  3  1  0
  3  4  1  0
  3  5  1  0
  2  6  1  0
  6  7  1  0
  4  8  1  0
  7  8  1  0
  9  8  1  6
  9 10  1  0
  4 11  1  0
 11 12  1  0
  9 13  1  0
 13 12  1  6
 13 14  1  0
 14 15  1  0
 10 16  2  0
 10 17  1  0
 15 17  1  0
 17 18  1  0
 18 19  1  0
 19 20  1  0
 18 21  1  6
M  END
$$$$
98
     RDKit          3D

 21 24  0  0  0  0  0  0  0  0999 V2000
   32.2259   67.2337    6.6502 C   0  0  2  0  0  0  0  0  0  0  0  0
   32.9913   66.6732    7.6368 C   0  0  1  0  0  0  0  0  0  0  0  0
   30.8140   66.9151    6.8802 C   0  0  1  0  0  0  0  0  0  0  0  0
   29.8571   67.0169    5.9041 O   0  0  0  0  0  0  0  0  0  0  0  0
   32.4449   66.4024    8.9047 C   0  0  2  0  0  0  0  0  0  0  0  0
   33.3360   65.8501    9.9550 O   0  0  0  0  0  0  0  0  0  0  0  0
   30.5818   66.3457    8.2255 C   0  0  2  0  0  0  0  0  0  0  0  0
   32.8109   66.8699    5.4713 O   0  0  0  0  0  0  0  0  0  0  0  0
   31.2455   65.6244    9.0053 C   0  0  2  0  0  0  0  0  0  0  0  0
   30.8727   65.1372   10.2290 N   0  0  0  0  0  0  0  0  0  0  0  0
   29.4867   65.1540   10.6152 C   0  0  1  0  0  0  0  0  0  0  0  0
   33.6862   65.4517    7.2829 O   0  0  0  0  0  0  0  0  0  0  0  0
   29.1216   64.7297   11.8076 C   0  0  2  0  0  0  0  0  0  0  0  0
   29.7743   64.5814   12.8840 N   0  0  0  0  0  0  0  0  0  0  0  0
   28.6145   66.5763    6.4502 C   0  0  0  0  0  0  0  0  0  0  0  0
   28.6096   65.6801    9.7264 N   0  0  0  0  0  0  0  0  0  0  0  0
   27.7760   64.0485   12.0131 C   0  0  0  0  0  0  0  0  0  0  0  0
   28.9219   66.2608    8.4982 C   0  0  0  0  0  0  0  0  0  0  0  0
   27.6717   63.5497   13.3112 C   0  0  0  0  0  0  0  0  0  0  0  0
   28.9616   63.9773   13.8494 N   0  0  0  0  0  0  0  0  0  0  0  0
   27.9694   66.6808    7.6473 C   0  0  0  0  0  0  0  0  0  0  0  0
  1  2  1  0
  1  3  1  0
  3  4  1  6
  2  5  1  0
  5  6  1  1
  3  7  1  0
  1  8  1  6
  5  9  1  0
  7  9  1  0
  9 10  1  1
 11 10  1  1
  2 12  1  6
 11 13  1  0
 13 14  1  0
  4 15  1  0
 11 16  1  0
 13 17  1  6
  7 18  1  6
 16 18  1  0
 17 19  1  0
 14 20  1  0
 19 20  1  0
 15 21  1  0
 18 21  1  0
M  END
$$$$
99
     RDKit          3D

 21 23  0  0  0  0  0  0  0  0999 V2000
   33.6183   66.0059    7.4162 O   0  0  0  0  0  0  0  0  0  0  0  0
   32.6565   66.5888    8.1501 C   0  0  1  0  0  0  0  0  0  0  0  0
   31.4523   66.7387    7.3552 C   0  0  0  0  0  0  0  0  0  0  0  0
   30.2234   66.5194    7.9191 C   0  0  0  0  0  0  0  0  0  0  0  0
   31.5122   67.1165    5.9986 O   0  0  0  0  0  0  0  0  0  0  0  0
   32.6060   66.2478    9.4978 C   0  0  0  0  0  0  0  0  0  0  0  0
   31.2843   66.0254    9.9935 N   0  0  0  0  0  0  0  0  0  0  0  0
   30.1287   66.1555    9.2927 C   0  0  0  0  0  0  0  0  0  0  0  0
   28.9133   65.9053   10.1384 C   0  0  2  0  0  0  0  0  0  0  0  0
   28.9753   65.1804   11.1900 C   0  0  0  0  0  0  0  0  0  0  0  0
   28.8035   66.5990    7.4651 C   0  0  0  0  0  0  0  0  0  0  0  0
   27.6804   66.3294    8.0883 C   0  0  0  0  0  0  0  0  0  0  0  0
   27.7137   65.5856    9.3515 C   0  0  2  0  0  0  0  0  0  0  0  0
   26.4123   65.6913   10.0435 C   0  0  0  0  0  0  0  0  0  0  0  0
   26.5337   64.9250   11.3862 C   0  0  0  0  0  0  0  0  0  0  0  0
   29.9054   65.2687   12.2148 O   0  0  0  0  0  0  0  0  0  0  0  0
   28.0212   64.2727   11.7345 C   0  0  1  0  0  0  0  0  0  0  0  0
   28.1393   62.9480   10.8944 C   0  0  0  0  0  0  0  0  0  0  0  0
   28.0246   64.1341   13.3250 C   0  0  0  0  0  0  0  0  0  0  0  0
   27.1101   63.2635   13.7260 O   0  0  0  0  0  0  0  0  0  0  0  0
   28.7235   64.6131   13.9316 O   0  0  0  0  0  0  0  0  0  0  0  0
  2  1  1  6
  2  3  1  0
  3  4  1  0
  3  5  1  0
  2  6  1  0
  6  7  1  0
  4  8  1  0
  7  8  1  0
  9  8  1  6
  9 10  1  0
  4 11  1  0
 11 12  1  0
  9 13  1  0
 13 12  1  6
 13 14  1  0
 14 15  1  0
 10 16  2  0
 10 17  1  0
 15 17  1  0
 17 18  1  6
 17 19  1  0
 19 20  1  0
 19 21  2  0
M  END
$$$$
