0
     RDKit          3D

  7  7  0  0  0  0  0  0  0  0999 V2000
   22.3698   20.8899   55.0905 C   0  0  0  0  0  0  0  0  0  0  0  0
   21.5573   20.1117   55.9190 C   0  0  0  0  0  0  0  0  0  0  0  0
   21.7498   21.1126   53.8276 C   0  0  0  0  0  0  0  0  0  0  0  0
   20.2958   20.9566   53.7406 C   0  0  0  0  0  0  0  0  0  0  0  0
   20.2460   19.8108   55.8175 C   0  0  0  0  0  0  0  0  0  0  0  0
   19.6204   20.1624   54.6397 C   0  0  0  0  0  0  0  0  0  0  0  0
   18.0630   19.6676   54.2473 Cl  0  0  0  0  0  0  0  0  0  0  0  0
  1  2  1  0
  1  3  1  0
  3  4  1  0
  2  5  1  0
  4  6  1  0
  5  6  1  0
  6  7  1  0
M  END
$$$$
1
     RDKit          3D

  8  8  0  0  0  0  0  0  0  0999 V2000
   20.9364   28.1012   54.2955 O   0  0  0  0  0  0  0  0  0  0  0  0
   20.2561   27.1689   54.6553 C   0  0  0  0  0  0  0  0  0  0  0  0
   20.7279   25.8659   54.7722 N   0  0  0  0  0  0  0  0  0  0  0  0
   18.8295   27.2713   54.8717 N   0  0  0  0  0  0  0  0  0  0  0  0
   20.1132   24.9788   55.3618 C   0  0  0  0  0  0  0  0  0  0  0  0
   18.2262   26.3601   55.5291 C   0  0  0  0  0  0  0  0  0  0  0  0
   20.6536   23.6837   55.6307 N   0  0  0  0  0  0  0  0  0  0  0  0
   18.8207   25.1938   55.8823 N   0  0  0  0  0  0  0  0  0  0  0  0
  1  2  2  0
  2  3  1  0
  2  4  1  0
  3  5  1  0
  4  6  1  0
  5  7  1  0
  5  8  1  0
  6  8  1  0
M  END
$$$$
10
     RDKit          3D

 15 15  0  0  0  0  0  0  0  0999 V2000
   22.7951   21.9245   61.4192 N   0  0  0  0  0  0  0  0  0  0  0  0
   21.5157   22.2450   61.4972 C   0  0  0  0  0  0  0  0  0  0  0  0
   20.9107   22.0955   62.6852 N   0  0  0  0  0  0  0  0  0  0  0  0
   20.7416   22.6847   60.4704 C   0  0  0  0  0  0  0  0  0  0  0  0
   19.6071   22.4985   62.6156 C   0  0  0  0  0  0  0  0  0  0  0  0
   21.1103   22.8400   59.2090 N   0  0  0  0  0  0  0  0  0  0  0  0
   19.4966   22.9926   61.0768 N   0  0  0  0  0  0  0  0  0  0  0  0
   20.3411   22.0454   58.4497 C   0  0  0  0  0  0  0  0  0  0  0  0
   20.8847   21.7231   57.1937 N   0  0  0  0  0  0  0  0  0  0  0  0
   19.1485   21.5817   58.6755 O   0  0  0  0  0  0  0  0  0  0  0  0
   20.1209   20.9130   56.1775 C   0  0  0  0  0  0  0  0  0  0  0  0
   20.7573   20.1776   55.4411 C   0  0  0  0  0  0  0  0  0  0  0  0
   19.9770   19.4621   54.4053 C   0  0  0  0  0  0  0  0  0  0  0  0
   18.5662   19.5284   54.5083 C   0  0  0  0  0  0  0  0  0  0  0  0
   17.8354   18.7864   53.4317 C   0  0  0  0  0  0  0  0  0  0  0  0
  1  2  1  0
  2  3  1  0
  2  4  1  0
  3  5  1  0
  4  6  1  0
  4  7  1  0
  5  7  1  0
  6  8  1  0
  8  9  1  0
  8 10  2  0
  9 11  1  0
 11 12  1  0
 12 13  1  0
 13 14  1  0
 14 15  1  0
M  END
$$$$
100
     RDKit          3D

 29 30  0  0  0  0  0  0  0  0999 V2000
   20.9667   27.8337   54.3398 O   0  0  0  0  0  0  0  0  0  0  0  0
   20.4378   26.8948   55.0351 C   0  0  2  0  0  0  0  0  0  0  0  0
   19.8158   27.0705   56.1997 C   0  0  0  0  0  0  0  0  0  0  0  0
   20.6922   25.5657   54.6308 C   0  0  0  0  0  0  0  0  0  0  0  0
   19.3610   26.0249   57.0585 C   0  0  0  0  0  0  0  0  0  0  0  0
   19.7233   24.6877   56.7384 C   0  0  2  0  0  0  0  0  0  0  0  0
   20.3461   24.4619   55.5014 C   0  0  0  0  0  0  0  0  0  0  0  0
   19.3284   23.5197   57.7065 C   0  0  0  0  0  0  0  0  0  0  0  0
   20.0657   22.4074   57.5386 N   0  0  0  0  0  0  0  0  0  0  0  0
   18.7296   23.6805   58.7992 O   0  0  0  0  0  0  0  0  0  0  0  0
   19.8209   21.2198   58.3589 C   0  0  1  0  0  0  0  0  0  0  0  0
   19.6987   20.0754   57.3921 C   0  0  0  0  0  0  0  0  0  0  0  0
   19.6496   20.2468   55.9451 C   0  0  0  0  0  0  0  0  0  0  0  0
   20.7111   21.0528   59.5004 C   0  0  0  0  0  0  0  0  0  0  0  0
   21.0984   22.0422   60.3024 C   0  0  0  0  0  0  0  0  0  0  0  0
   18.4912   19.8895   55.2360 C   0  0  0  0  0  0  0  0  0  0  0  0
   17.5056   19.3727   55.9741 O   0  0  0  0  0  0  0  0  0  0  0  0
   22.2535   21.7473   61.1003 N   0  0  0  0  0  0  0  0  0  0  0  0
   20.6029   23.0937   60.5716 O   0  0  0  0  0  0  0  0  0  0  0  0
   18.4911   19.7178   53.9171 N   0  0  0  0  0  0  0  0  0  0  0  0
   22.6028   22.3644   62.3012 C   0  0  0  0  0  0  0  0  0  0  0  0
   21.4897   23.1064   62.8198 C   0  0  0  0  0  0  0  0  0  0  0  0
   21.8231   23.8997   63.9918 C   0  0  0  0  0  0  0  0  0  0  0  0
   20.8704   24.9481   64.3710 C   0  0  0  0  0  0  0  0  0  0  0  0
   19.8772   25.2116   63.5192 C   0  0  0  0  0  0  0  0  0  0  0  0
   21.0538   25.9153   65.4659 C   0  0  0  0  0  0  0  0  0  0  0  0
   20.5271   26.8928   65.5440 C   0  0  0  0  0  0  0  0  0  0  0  0
   19.0914   26.4143   63.7204 C   0  0  0  0  0  0  0  0  0  0  0  0
   19.4455   27.2899   64.7270 C   0  0  0  0  0  0  0  0  0  0  0  0
  2  1  1  1
  2  3  1  0
  2  4  1  0
  3  5  1  0
  5  6  1  0
  4  7  1  0
  6  7  1  0
  6  8  1  6
  8  9  1  0
  8 10  2  0
  9 11  1  0
 11 12  1  6
 12 13  1  0
 11 14  1  0
 14 15  1  0
 13 16  1  0
 16 17  2  0
 15 18  1  0
 15 19  2  0
 16 20  1  0
 18 21  1  0
 21 22  1  0
 22 23  1  0
 23 24  1  0
 24 25  1  0
 24 26  1  0
 26 27  1  0
 25 28  1  0
 27 29  1  0
 28 29  1  0
M  END
$$$$
101
     RDKit          3D

 29 31  0  0  0  0  0  0  0  0999 V2000
   21.3144   28.5394   54.7269 O   0  0  0  0  0  0  0  0  0  0  0  0
   20.7870   27.3784   54.7834 C   0  0  0  0  0  0  0  0  0  0  0  0
   20.2353   26.9019   56.0017 C   0  0  2  0  0  0  0  0  0  0  0  0
   20.9112   26.6132   53.7075 O   0  0  0  0  0  0  0  0  0  0  0  0
   20.1703   25.4684   56.2350 C   0  0  0  0  0  0  0  0  0  0  0  0
   19.8112   25.1692   57.5302 C   0  0  1  0  0  0  0  0  0  0  0  0
   19.3435   26.0916   58.4460 C   0  0  2  0  0  0  0  0  0  0  0  0
   19.7636   23.7384   57.9748 C   0  0  1  0  0  0  0  0  0  0  0  0
   20.1167   22.6115   57.3031 N   0  0  0  0  0  0  0  0  0  0  0  0
   19.8610   23.6219   59.4583 C   0  0  2  0  0  0  0  0  0  0  0  0
   19.7115   27.7937   56.9148 C   0  0  0  0  0  0  0  0  0  0  0  0
   19.2636   27.4176   58.1326 C   0  0  0  0  0  0  0  0  0  0  0  0
   19.8987   21.4225   57.4874 C   0  0  1  0  0  0  0  0  0  0  0  0
   19.8638   22.2146   59.9816 C   0  0  2  0  0  0  0  0  0  0  0  0
   20.2543   22.0737   61.3354 C   0  0  1  0  0  0  0  0  0  0  0  0
   21.6691   21.7940   61.5974 C   0  0  0  0  0  0  0  0  0  0  0  0
   20.0534   21.1557   58.9576 C   0  0  0  0  0  0  0  0  0  0  0  0
   19.5306   22.4096   62.3398 O   0  0  0  0  0  0  0  0  0  0  0  0
   20.0063   23.0474   63.4460 C   0  0  0  0  0  0  0  0  0  0  0  0
   20.2013   24.2507   63.4549 C   0  0  2  0  0  0  0  0  0  0  0  0
   19.4085   20.4514   56.6857 C   0  0  0  0  0  0  0  0  0  0  0  0
   19.5021   25.1920   62.6739 O   0  0  0  0  0  0  0  0  0  0  0  0
   20.0370   26.4785   62.1955 C   0  0  0  0  0  0  0  0  0  0  0  0
   18.3189   19.7834   56.7899 C   0  0  0  0  0  0  0  0  0  0  0  0
   22.5066   21.6686   60.4905 O   0  0  0  0  0  0  0  0  0  0  0  0
   19.2059   25.3298   59.7356 C   0  0  0  0  0  0  0  0  0  0  0  0
   21.5225   24.9001   63.8087 C   0  0  0  0  0  0  0  0  0  0  0  0
   20.4415   19.6040   55.9543 C   0  0  0  0  0  0  0  0  0  0  0  0
   22.1902   24.2423   64.8566 O   0  0  0  0  0  0  0  0  0  0  0  0
  1  2  1  0
  3  2  1  6
  2  4  2  0
  3  5  1  0
  6  5  1  6
  6  7  1  0
  6  8  1  0
  8  9  1  6
  8 10  1  0
  3 11  1  0
  7 12  1  1
 11 12  1  0
  9 13  1  0
 10 14  1  0
 14 15  1  0
 15 16  1  6
 13 17  1  0
 14 17  1  6
 15 18  1  0
 18 19  1  0
 20 19  1  6
 13 21  1  1
 20 22  1  0
 22 23  1  0
 21 24  1  0
 16 25  1  0
  7 26  1  0
 10 26  1  1
 20 27  1  0
 21 28  1  0
 27 29  1  0
M  END
$$$$
102
     RDKit          3D

 29 31  0  0  0  0  0  0  0  0999 V2000
   22.6125   21.9801   61.6250 N   0  0  0  0  0  0  0  0  0  0  0  0
   21.6773   22.1523   62.5264 C   0  0  0  0  0  0  0  0  0  0  0  0
   20.5687   22.9375   62.0174 C   0  0  2  0  0  0  0  0  0  0  0  0
   22.1734   22.1578   60.3222 C   0  0  0  0  0  0  0  0  0  0  0  0
   20.8429   22.9614   60.5146 C   0  0  1  0  0  0  0  0  0  0  0  0
   19.8366   22.4807   59.5567 C   0  0  0  0  0  0  0  0  0  0  0  0
   20.1063   22.7421   58.2456 N   0  0  0  0  0  0  0  0  0  0  0  0
   19.5685   23.6459   62.4976 O   0  0  0  0  0  0  0  0  0  0  0  0
   19.6324   23.8668   57.7487 C   0  0  2  0  0  0  0  0  0  0  0  0
   19.4623   21.5204   57.5024 C   0  0  0  0  0  0  0  0  0  0  0  0
   19.8197   24.3832   63.6245 C   0  0  1  0  0  0  0  0  0  0  0  0
   20.2089   24.4392   56.6171 C   0  0  0  0  0  0  0  0  0  0  0  0
   20.0217   25.9230   56.3719 C   0  0  2  0  0  0  0  0  0  0  0  0
   20.3867   20.3778   57.2000 C   0  0  0  0  0  0  0  0  0  0  0  0
   20.9136   20.3429   55.9147 C   0  0  0  0  0  0  0  0  0  0  0  0
   20.0823   20.0929   54.8340 C   0  0  0  0  0  0  0  0  0  0  0  0
   18.7077   19.6093   54.9715 C   0  0  0  0  0  0  0  0  0  0  0  0
   19.3454   24.9394   58.7792 C   0  0  0  0  0  0  0  0  0  0  0  0
   20.5468   26.6097   55.3129 C   0  0  0  0  0  0  0  0  0  0  0  0
   18.9626   25.0153   59.8350 O   0  0  0  0  0  0  0  0  0  0  0  0
   21.1613   26.0644   54.3648 O   0  0  0  0  0  0  0  0  0  0  0  0
   20.1134   25.7461   63.4077 C   0  0  0  0  0  0  0  0  0  0  0  0
   19.6148   26.3316   58.1218 C   0  0  0  0  0  0  0  0  0  0  0  0
   20.2413   27.8738   55.2561 O   0  0  0  0  0  0  0  0  0  0  0  0
   18.7441   24.2954   64.6932 C   0  0  0  0  0  0  0  0  0  0  0  0
   20.6295   26.5332   64.4868 C   0  0  1  0  0  0  0  0  0  0  0  0
   19.2303   25.0785   65.9380 C   0  0  0  0  0  0  0  0  0  0  0  0
   21.0651   27.7883   64.4550 F   0  0  0  0  0  0  0  0  0  0  0  0
   19.9202   26.2729   65.7871 C   0  0  0  0  0  0  0  0  0  0  0  0
  1  2  1  0
  2  3  1  0
  1  4  1  0
  3  5  1  0
  4  5  1  0
  5  6  1  6
  6  7  1  0
  3  8  1  1
  9  7  1  1
  7 10  1  0
 11  8  1  6
  9 12  1  0
 12 13  1  0
 10 14  1  0
 14 15  1  0
 15 16  1  0
 16 17  1  0
  9 18  1  0
 13 19  1  1
 18 20  2  0
 19 21  2  0
 11 22  1  0
 13 23  1  0
 18 23  1  0
 19 24  1  0
 11 25  1  0
 22 26  1  0
 25 27  1  0
 26 28  1  6
 26 29  1  0
 27 29  1  0
M  END
$$$$
103
     RDKit          3D

 29 31  0  0  0  0  0  0  0  0999 V2000
   22.6715   22.0680   61.3768 N   0  0  0  0  0  0  0  0  0  0  0  0
   21.7846   22.0138   62.3731 C   0  0  0  0  0  0  0  0  0  0  0  0
   20.5497   22.8072   61.8925 C   0  0  1  0  0  0  0  0  0  0  0  0
   19.6154   23.2336   62.5784 O   0  0  0  0  0  0  0  0  0  0  0  0
   20.6398   23.0877   60.4625 C   0  0  2  0  0  0  0  0  0  0  0  0
   19.6098   23.2370   63.9226 C   0  0  2  0  0  0  0  0  0  0  0  0
   19.7863   23.5049   59.5813 C   0  0  1  0  0  0  0  0  0  0  0  0
   22.1652   22.3567   60.0570 C   0  0  0  0  0  0  0  0  0  0  0  0
   19.0441   21.9405   64.5078 C   0  0  0  0  0  0  0  0  0  0  0  0
   19.4160   24.7318   59.5615 N   0  0  0  0  0  0  0  0  0  0  0  0
   18.9382   25.1850   58.2964 N   0  0  0  0  0  0  0  0  0  0  0  0
   19.7993   22.7894   58.3180 C   0  0  0  0  0  0  0  0  0  0  0  0
   19.0099   24.4036   64.5396 C   0  0  0  0  0  0  0  0  0  0  0  0
   19.2335   23.9856   57.4751 C   0  0  0  0  0  0  0  0  0  0  0  0
   18.5835   26.4884   57.8839 C   0  0  2  0  0  0  0  0  0  0  0  0
   19.6396   20.7983   64.4082 O   0  0  0  0  0  0  0  0  0  0  0  0
   19.9035   25.4991   64.6269 N   0  0  0  0  0  0  0  0  0  0  0  0
   19.5421   26.8534   64.7865 C   0  0  0  0  0  0  0  0  0  0  0  0
   18.9219   26.9212   56.7415 C   0  0  2  0  0  0  0  0  0  0  0  0
   18.0650   27.1851   58.9135 O   0  0  0  0  0  0  0  0  0  0  0  0
   18.3552   28.5174   58.7602 C   0  0  0  0  0  0  0  0  0  0  0  0
   21.2824   25.3762   64.4358 C   0  0  0  0  0  0  0  0  0  0  0  0
   20.0588   26.9172   56.1227 C   0  0  0  0  0  0  0  0  0  0  0  0
   17.7609   27.7180   56.2423 C   0  0  0  0  0  0  0  0  0  0  0  0
   17.2483   28.6146   57.3535 C   0  0  0  0  0  0  0  0  0  0  0  0
   21.0097   25.9475   56.2766 O   0  0  0  0  0  0  0  0  0  0  0  0
   20.3507   27.3971   54.8028 O   0  0  0  0  0  0  0  0  0  0  0  0
   18.2485   27.2842   64.9668 O   0  0  0  0  0  0  0  0  0  0  0  0
   20.5086   27.8954   64.7646 N   0  0  0  0  0  0  0  0  0  0  0  0
  1  2  1  0
  2  3  1  0
  3  4  1  1
  3  5  1  0
  4  6  1  0
  5  7  1  0
  1  8  1  0
  5  8  1  6
  6  9  1  6
  7 10  1  0
 10 11  1  0
  7 12  1  6
  6 13  1  0
 11 14  1  0
 12 14  1  0
 15 11  1  1
  9 16  1  0
 13 17  1  0
 17 18  1  0
 15 19  1  0
 15 20  1  0
 20 21  1  0
 17 22  1  0
 19 23  1  1
 19 24  1  0
 21 25  1  0
 24 25  1  0
 23 26  1  0
 23 27  2  0
 18 28  2  0
 18 29  1  0
M  END
$$$$
104
     RDKit          3D

 29 32  0  0  0  0  0  0  0  0999 V2000
   22.7330   22.3762   61.1096 N   0  0  0  0  0  0  0  0  0  0  0  0
   21.9740   22.2828   62.2696 C   0  0  0  0  0  0  0  0  0  0  0  0
   20.7426   23.1741   62.1313 C   0  0  2  0  0  0  0  0  0  0  0  0
   21.9278   22.5678   59.9872 C   0  0  2  0  0  0  0  0  0  0  0  0
   19.6343   22.9738   62.8798 O   0  0  0  0  0  0  0  0  0  0  0  0
   19.5204   22.5358   64.1299 C   0  0  0  0  0  0  0  0  0  0  0  0
   20.5833   23.0407   60.6591 C   0  0  2  0  0  0  0  0  0  0  0  0
   19.8991   23.4483   64.9839 O   0  0  0  0  0  0  0  0  0  0  0  0
   21.5596   21.2491   59.3072 C   0  0  0  0  0  0  0  0  0  0  0  0
   19.0641   21.3169   64.4580 C   0  0  0  0  0  0  0  0  0  0  0  0
   20.1509   24.3260   60.0534 N   0  0  0  0  0  0  0  0  0  0  0  0
   20.4293   21.0587   58.6338 N   0  0  0  0  0  0  0  0  0  0  0  0
   20.4796   20.8624   57.2052 C   0  0  2  0  0  0  0  0  0  0  0  0
   19.5546   20.0824   56.6247 C   0  0  0  0  0  0  0  0  0  0  0  0
   19.5857   19.8409   55.2153 C   0  0  0  0  0  0  0  0  0  0  0  0
   20.7238   20.2271   54.5055 C   0  0  1  0  0  0  0  0  0  0  0  0
   20.7258   19.9924   53.0224 C   0  0  0  0  0  0  0  0  0  0  0  0
   21.4887   21.3838   56.4046 N   0  0  0  0  0  0  0  0  0  0  0  0
   21.4517   21.0954   55.0210 C   0  0  0  0  0  0  0  0  0  0  0  0
   20.8697   25.3837   60.2678 C   0  0  0  0  0  0  0  0  0  0  0  0
   19.4139   24.1931   58.8312 C   0  0  0  0  0  0  0  0  0  0  0  0
   18.9168   23.1458   58.3469 O   0  0  0  0  0  0  0  0  0  0  0  0
   18.9273   25.4652   58.2846 C   0  0  1  0  0  0  0  0  0  0  0  0
   20.2980   26.6062   59.6721 N   0  0  0  0  0  0  0  0  0  0  0  0
   19.3650   26.5926   58.8789 C   0  0  1  0  0  0  0  0  0  0  0  0
   19.1675   27.7195   58.0061 C   0  0  0  0  0  0  0  0  0  0  0  0
   18.5899   27.6643   56.7196 C   0  0  0  0  0  0  0  0  0  0  0  0
   18.0714   26.3476   56.3345 C   0  0  0  0  0  0  0  0  0  0  0  0
   18.3933   25.2158   57.0468 C   0  0  0  0  0  0  0  0  0  0  0  0
  1  2  1  0
  2  3  1  0
  1  4  1  0
  3  5  1  1
  5  6  1  0
  3  7  1  0
  4  7  1  0
  6  8  2  0
  4  9  1  1
  6 10  1  0
  7 11  1  6
  9 12  1  0
 13 12  1  1
 13 14  1  0
 14 15  1  0
 15 16  1  0
 16 17  1  6
 13 18  1  0
 16 19  1  0
 18 19  1  0
 11 20  1  0
 11 21  1  0
 21 22  2  0
 21 23  1  0
 20 24  1  0
 23 25  1  0
 24 25  1  0
 25 26  1  6
 26 27  1  0
 27 28  1  0
 23 29  1  6
 28 29  1  0
M  END
$$$$
105
     RDKit          3D

 29 31  0  0  0  0  0  0  0  0999 V2000
   21.3144   28.5394   54.7269 O   0  0  0  0  0  0  0  0  0  0  0  0
   20.7870   27.3784   54.7834 C   0  0  0  0  0  0  0  0  0  0  0  0
   20.2353   26.9019   56.0017 C   0  0  2  0  0  0  0  0  0  0  0  0
   20.9112   26.6132   53.7075 O   0  0  0  0  0  0  0  0  0  0  0  0
   20.1703   25.4684   56.2350 C   0  0  0  0  0  0  0  0  0  0  0  0
   19.8112   25.1692   57.5302 C   0  0  1  0  0  0  0  0  0  0  0  0
   19.3435   26.0916   58.4460 C   0  0  0  0  0  0  0  0  0  0  0  0
   19.7636   23.7384   57.9748 C   0  0  1  0  0  0  0  0  0  0  0  0
   20.1167   22.6115   57.3031 N   0  0  0  0  0  0  0  0  0  0  0  0
   19.8610   23.6219   59.4583 C   0  0  0  0  0  0  0  0  0  0  0  0
   19.7115   27.7937   56.9148 C   0  0  0  0  0  0  0  0  0  0  0  0
   19.2636   27.4176   58.1326 C   0  0  0  0  0  0  0  0  0  0  0  0
   19.8987   21.4225   57.4874 C   0  0  2  0  0  0  0  0  0  0  0  0
   19.8638   22.2146   59.9816 C   0  0  2  0  0  0  0  0  0  0  0  0
   20.2543   22.0737   61.3354 C   0  0  1  0  0  0  0  0  0  0  0  0
   21.6691   21.7940   61.5974 C   0  0  0  0  0  0  0  0  0  0  0  0
   20.0534   21.1557   58.9576 C   0  0  0  0  0  0  0  0  0  0  0  0
   19.5306   22.4096   62.3398 O   0  0  0  0  0  0  0  0  0  0  0  0
   20.0063   23.0474   63.4460 C   0  0  1  0  0  0  0  0  0  0  0  0
   20.2013   24.2507   63.4549 C   0  0  2  0  0  0  0  0  0  0  0  0
   19.1143   22.5513   64.6220 C   0  0  0  0  0  0  0  0  0  0  0  0
   22.5096   21.5896   60.6025 O   0  0  0  0  0  0  0  0  0  0  0  0
   20.2894   20.3360   56.6918 C   0  0  2  0  0  0  0  0  0  0  0  0
   21.3498   24.9598   64.0296 C   0  0  0  0  0  0  0  0  0  0  0  0
   21.6133   20.3796   56.2804 N   0  0  0  0  0  0  0  0  0  0  0  0
   19.2270   25.1708   62.9349 O   0  0  0  0  0  0  0  0  0  0  0  0
   19.6884   26.5080   63.1102 C   0  0  0  0  0  0  0  0  0  0  0  0
   20.9344   26.3943   63.8768 C   0  0  0  0  0  0  0  0  0  0  0  0
   19.4996   19.4087   56.1708 C   0  0  0  0  0  0  0  0  0  0  0  0
  1  2  1  0
  3  2  1  6
  2  4  2  0
  3  5  1  0
  6  5  1  6
  6  7  1  0
  6  8  1  0
  8  9  1  0
  8 10  1  1
  3 11  1  0
  7 12  1  0
 11 12  1  0
  9 13  1  0
 14 10  1  6
 14 15  1  0
 15 16  1  6
 13 17  1  1
 14 17  1  0
 15 18  1  0
 18 19  1  0
 19 20  1  0
 19 21  1  1
 16 22  1  0
 13 23  1  0
 20 24  1  1
 23 25  1  0
 20 26  1  0
 26 27  1  0
 24 28  1  0
 27 28  1  0
 23 29  1  6
M  END
$$$$
106
     RDKit          3D

 29 32  0  0  0  0  0  0  0  0999 V2000
   22.7288   21.9193   61.8949 N   0  0  0  0  0  0  0  0  0  0  0  0
   21.9062   22.3403   61.0011 C   0  0  1  0  0  0  0  0  0  0  0  0
   21.6678   21.5785   59.9081 N   0  0  0  0  0  0  0  0  0  0  0  0
   20.6643   21.9393   58.9838 C   0  0  2  0  0  0  0  0  0  0  0  0
   20.5470   22.9899   61.2544 C   0  0  1  0  0  0  0  0  0  0  0  0
   20.4520   24.0816   62.0004 N   0  0  0  0  0  0  0  0  0  0  0  0
   20.0203   23.1077   59.8583 N   0  0  0  0  0  0  0  0  0  0  0  0
   19.9885   21.7013   58.0082 C   0  0  1  0  0  0  0  0  0  0  0  0
   19.0964   23.8583   59.2464 C   0  0  0  0  0  0  0  0  0  0  0  0
   20.7660   24.1420   63.2957 C   0  0  0  0  0  0  0  0  0  0  0  0
   19.0727   22.5285   57.5179 C   0  0  0  0  0  0  0  0  0  0  0  0
   18.6549   23.5356   58.1506 N   0  0  0  0  0  0  0  0  0  0  0  0
   20.3701   20.3885   57.2233 C   0  0  0  0  0  0  0  0  0  0  0  0
   21.2146   23.1533   63.9903 O   0  0  0  0  0  0  0  0  0  0  0  0
   21.5298   20.4791   56.5481 C   0  0  0  0  0  0  0  0  0  0  0  0
   20.8520   25.4726   64.0109 C   0  0  2  0  0  0  0  0  0  0  0  0
   21.2069   25.5678   65.2742 C   0  0  0  0  0  0  0  0  0  0  0  0
   19.4888   26.1801   63.8630 C   0  0  2  0  0  0  0  0  0  0  0  0
   21.2660   20.5374   55.1511 C   0  0  0  0  0  0  0  0  0  0  0  0
   22.2397   20.8419   54.2867 C   0  0  0  0  0  0  0  0  0  0  0  0
   19.8856   20.3011   54.7091 C   0  0  0  0  0  0  0  0  0  0  0  0
   20.7780   26.6014   65.9956 C   0  0  2  0  0  0  0  0  0  0  0  0
   19.9055   20.3026   53.1880 C   0  0  0  0  0  0  0  0  0  0  0  0
   20.9439   20.5217   52.6009 C   0  0  0  0  0  0  0  0  0  0  0  0
   22.0826   20.8248   52.9930 N   0  0  0  0  0  0  0  0  0  0  0  0
   21.4174   26.9733   67.3500 C   0  0  0  0  0  0  0  0  0  0  0  0
   19.0044   26.4414   62.6496 O   0  0  0  0  0  0  0  0  0  0  0  0
   22.7298   27.5905   67.2879 C   0  0  0  0  0  0  0  0  0  0  0  0
   19.4820   27.0429   65.0565 C   0  0  0  0  0  0  0  0  0  0  0  0
  2  1  1  1
  2  3  1  0
  4  3  1  1
  2  5  1  0
  5  6  1  6
  4  7  1  0
  5  7  1  0
  4  8  1  0
  7  9  1  0
  6 10  1  0
  8 11  1  0
  9 12  1  0
 11 12  1  0
  8 13  1  6
 10 14  2  0
 13 15  1  0
 16 10  1  1
 16 17  1  0
 16 18  1  0
 15 19  1  0
 19 20  1  0
 19 21  1  0
 17 22  1  0
 21 23  1  0
 23 24  1  0
 20 25  1  0
 24 25  1  0
 22 26  1  1
 18 27  1  6
 26 28  1  0
 18 29  1  0
 22 29  1  0
M  END
$$$$
107
     RDKit          3D

 29 31  0  0  0  0  0  0  0  0999 V2000
   22.6125   21.9801   61.6250 N   0  0  0  0  0  0  0  0  0  0  0  0
   21.6773   22.1523   62.5264 C   0  0  0  0  0  0  0  0  0  0  0  0
   20.5687   22.9375   62.0174 C   0  0  2  0  0  0  0  0  0  0  0  0
   22.1734   22.1578   60.3222 C   0  0  0  0  0  0  0  0  0  0  0  0
   20.8429   22.9614   60.5146 C   0  0  1  0  0  0  0  0  0  0  0  0
   19.8366   22.4807   59.5567 C   0  0  0  0  0  0  0  0  0  0  0  0
   20.1063   22.7421   58.2456 N   0  0  0  0  0  0  0  0  0  0  0  0
   19.5685   23.6459   62.4976 O   0  0  0  0  0  0  0  0  0  0  0  0
   19.6324   23.8668   57.7487 C   0  0  2  0  0  0  0  0  0  0  0  0
   19.4623   21.5204   57.5024 C   0  0  0  0  0  0  0  0  0  0  0  0
   19.8197   24.3832   63.6245 C   0  0  1  0  0  0  0  0  0  0  0  0
   20.2089   24.4392   56.6171 C   0  0  0  0  0  0  0  0  0  0  0  0
   20.0217   25.9230   56.3719 C   0  0  2  0  0  0  0  0  0  0  0  0
   20.3867   20.3778   57.2000 C   0  0  0  0  0  0  0  0  0  0  0  0
   20.9136   20.3429   55.9147 C   0  0  0  0  0  0  0  0  0  0  0  0
   20.0823   20.0929   54.8340 C   0  0  0  0  0  0  0  0  0  0  0  0
   18.7077   19.6093   54.9715 C   0  0  0  0  0  0  0  0  0  0  0  0
   19.3454   24.9394   58.7792 C   0  0  0  0  0  0  0  0  0  0  0  0
   20.5468   26.6097   55.3129 C   0  0  0  0  0  0  0  0  0  0  0  0
   18.9626   25.0153   59.8350 O   0  0  0  0  0  0  0  0  0  0  0  0
   21.1613   26.0644   54.3648 O   0  0  0  0  0  0  0  0  0  0  0  0
   20.1134   25.7461   63.4077 C   0  0  0  0  0  0  0  0  0  0  0  0
   19.6148   26.3316   58.1218 C   0  0  0  0  0  0  0  0  0  0  0  0
   20.2413   27.8738   55.2561 O   0  0  0  0  0  0  0  0  0  0  0  0
   18.7441   24.2954   64.6932 C   0  0  0  0  0  0  0  0  0  0  0  0
   19.1485   24.9853   65.8854 C   0  0  0  0  0  0  0  0  0  0  0  0
   19.5537   26.4216   65.6541 C   0  0  1  0  0  0  0  0  0  0  0  0
   19.9813   27.1587   66.6829 N   0  0  0  0  0  0  0  0  0  0  0  0
   20.6376   26.5537   64.6281 C   0  0  0  0  0  0  0  0  0  0  0  0
  1  2  1  0
  2  3  1  0
  1  4  1  0
  3  5  1  0
  4  5  1  0
  5  6  1  6
  6  7  1  0
  3  8  1  1
  9  7  1  1
  7 10  1  0
 11  8  1  6
  9 12  1  0
 12 13  1  0
 10 14  1  0
 14 15  1  0
 15 16  1  0
 16 17  1  0
  9 18  1  0
 13 19  1  1
 18 20  2  0
 19 21  2  0
 11 22  1  0
 13 23  1  0
 18 23  1  0
 19 24  1  0
 11 25  1  0
 25 26  1  0
 26 27  1  0
 27 28  1  1
 22 29  1  0
 27 29  1  0
M  END
$$$$
108
     RDKit          3D

 29 33  0  0  0  0  0  0  0  0999 V2000
   22.9118   22.2849   61.0142 N   0  0  0  0  0  0  0  0  0  0  0  0
   21.6501   22.2135   60.3201 C   0  0  2  0  0  0  0  0  0  0  0  0
   20.6169   22.5681   61.1772 C   0  0  1  0  0  0  0  0  0  0  0  0
   20.9521   22.6030   62.5802 C   0  0  1  0  0  0  0  0  0  0  0  0
   21.1554   20.9783   59.7328 C   0  0  0  0  0  0  0  0  0  0  0  0
   20.2437   24.1165   60.8504 C   0  0  1  0  0  0  0  0  0  0  0  0
   22.4544   22.4333   62.5548 C   0  0  0  0  0  0  0  0  0  0  0  0
   21.1935   21.0033   58.2563 N   0  0  0  0  0  0  0  0  0  0  0  0
   19.8871   24.4714   59.5679 N   0  0  0  0  0  0  0  0  0  0  0  0
   20.3068   23.0156   63.6639 C   0  0  0  0  0  0  0  0  0  0  0  0
   20.2168   25.0202   61.8525 C   0  0  1  0  0  0  0  0  0  0  0  0
   19.7116   26.3142   61.5320 C   0  0  0  0  0  0  0  0  0  0  0  0
   19.9972   24.5238   63.4855 C   0  0  0  0  0  0  0  0  0  0  0  0
   19.7248   26.5230   60.2036 C   0  0  0  0  0  0  0  0  0  0  0  0
   19.6622   25.7526   59.3197 C   0  0  1  0  0  0  0  0  0  0  0  0
   19.4713   26.1648   57.7592 C   0  0  1  0  0  0  0  0  0  0  0  0
   20.1208   21.4421   57.6183 C   0  0  0  0  0  0  0  0  0  0  0  0
   20.1358   21.2355   56.1722 C   0  0  0  0  0  0  0  0  0  0  0  0
   20.0710   19.7751   55.8299 C   0  0  0  0  0  0  0  0  0  0  0  0
   20.2996   27.1045   57.2925 C   0  0  0  0  0  0  0  0  0  0  0  0
   19.5949   24.9202   56.9799 C   0  0  0  0  0  0  0  0  0  0  0  0
   19.9206   19.4122   54.5561 C   0  0  0  0  0  0  0  0  0  0  0  0
   20.2943   20.1283   53.4818 C   0  0  0  0  0  0  0  0  0  0  0  0
   18.9695   21.7767   58.1146 O   0  0  0  0  0  0  0  0  0  0  0  0
   20.4459   22.0867   55.1060 C   0  0  0  0  0  0  0  0  0  0  0  0
   19.6156   25.3334   55.5396 C   0  0  0  0  0  0  0  0  0  0  0  0
   20.4784   21.4957   53.6758 C   0  0  0  0  0  0  0  0  0  0  0  0
   20.1199   26.8955   55.7370 C   0  0  2  0  0  0  0  0  0  0  0  0
   20.6504   27.6618   54.8118 O   0  0  0  0  0  0  0  0  0  0  0  0
  1  2  1  0
  3  2  1  6
  3  4  1  0
  2  5  1  1
  3  6  1  0
  1  7  1  0
  4  7  1  6
  5  8  1  0
  6  9  1  1
  4 10  1  0
  6 11  1  0
 11 12  1  6
 10 13  1  0
 11 13  1  0
 12 14  1  0
  9 15  1  0
 15 14  1  6
 15 16  1  0
  8 17  1  0
 17 18  1  0
 18 19  1  0
 16 20  1  6
 16 21  1  0
 19 22  1  0
 22 23  1  0
 17 24  2  0
 18 25  1  0
 21 26  1  0
 23 27  1  0
 25 27  1  0
 20 28  1  0
 26 28  1  0
 28 29  1  6
M  END
$$$$
109
     RDKit          3D

 29 32  0  0  0  0  0  0  0  0999 V2000
   21.0347   27.9269   54.5582 O   0  0  0  0  0  0  0  0  0  0  0  0
   20.4662   26.8777   55.0560 C   0  0  1  0  0  0  0  0  0  0  0  0
   19.8977   26.7767   56.1838 C   0  0  0  0  0  0  0  0  0  0  0  0
   20.4106   25.7552   54.0986 C   0  0  0  0  0  0  0  0  0  0  0  0
   19.9152   24.5494   54.6359 C   0  0  0  0  0  0  0  0  0  0  0  0
   19.4409   25.5728   56.7587 C   0  0  1  0  0  0  0  0  0  0  0  0
   19.5864   24.3908   55.9492 C   0  0  0  0  0  0  0  0  0  0  0  0
   18.8530   25.4475   58.2255 C   0  0  0  0  0  0  0  0  0  0  0  0
   19.9718   25.4644   59.2147 C   0  0  1  0  0  0  0  0  0  0  0  0
   19.7861   26.2245   60.2591 N   0  0  0  0  0  0  0  0  0  0  0  0
   20.4427   26.3420   61.3360 C   0  0  1  0  0  0  0  0  0  0  0  0
   20.2169   24.1648   59.8285 C   0  0  2  0  0  0  0  0  0  0  0  0
   21.0115   24.0837   61.0679 N   0  0  0  0  0  0  0  0  0  0  0  0
   20.2221   22.9293   59.0941 N   0  0  0  0  0  0  0  0  0  0  0  0
   21.4039   22.7207   61.4412 C   0  0  2  0  0  0  0  0  0  0  0  0
   21.4954   21.8923   60.3884 C   0  0  1  0  0  0  0  0  0  0  0  0
   20.6925   22.0414   62.4155 O   0  0  0  0  0  0  0  0  0  0  0  0
   20.6501   21.8098   59.3494 C   0  0  2  0  0  0  0  0  0  0  0  0
   20.5496   20.7361   58.5307 C   0  0  0  0  0  0  0  0  0  0  0  0
   20.2554   27.1300   62.2883 N   0  0  0  0  0  0  0  0  0  0  0  0
   20.5392   27.0057   63.5774 C   0  0  0  0  0  0  0  0  0  0  0  0
   20.9303   25.7025   63.9328 N   0  0  0  0  0  0  0  0  0  0  0  0
   19.8250   20.8821   57.2910 C   0  0  0  0  0  0  0  0  0  0  0  0
   19.8430   19.8256   56.3443 C   0  0  0  0  0  0  0  0  0  0  0  0
   21.0268   24.7307   63.0259 C   0  0  0  0  0  0  0  0  0  0  0  0
   20.7675   24.9800   61.8292 C   0  0  1  0  0  0  0  0  0  0  0  0
   22.9003   21.8662   59.8641 O   0  0  0  0  0  0  0  0  0  0  0  0
   20.6811   20.0418   55.3020 C   0  0  0  0  0  0  0  0  0  0  0  0
   20.2600   19.7348   53.9998 C   0  0  0  0  0  0  0  0  0  0  0  0
  2  1  1  6
  2  3  1  0
  2  4  1  0
  4  5  1  0
  3  6  1  0
  5  7  1  0
  6  7  1  0
  6  8  1  1
  9  8  1  6
  9 10  1  0
 11 10  1  6
  9 12  1  0
 12 13  1  0
 12 14  1  6
 13 15  1  0
 15 16  1  0
 15 17  1  1
 14 18  1  0
 16 18  1  0
 18 19  1  6
 11 20  1  0
 20 21  1  0
 21 22  1  0
 19 23  1  0
 23 24  1  0
 22 25  1  0
 11 26  1  0
 13 26  1  0
 26 25  1  1
 16 27  1  6
 24 28  1  0
 28 29  1  0
M  END
$$$$
11
     RDKit          3D

 16 18  0  0  0  0  0  0  0  0999 V2000
   20.1989   20.7786   64.0831 C   0  0  0  0  0  0  0  0  0  0  0  0
   20.7543   21.7693   63.2682 N   0  0  0  0  0  0  0  0  0  0  0  0
   21.5746   21.7441   62.2357 C   0  0  0  0  0  0  0  0  0  0  0  0
   18.9623   20.9971   64.5726 C   0  0  0  0  0  0  0  0  0  0  0  0
   18.8382   22.1785   65.2296 O   0  0  0  0  0  0  0  0  0  0  0  0
   22.0373   22.9467   61.5908 N   0  0  0  0  0  0  0  0  0  0  0  0
   21.2375   23.9063   61.9932 C   0  0  2  0  0  0  0  0  0  0  0  0
   20.2567   23.1384   62.8738 C   0  0  2  0  0  0  0  0  0  0  0  0
   23.0617   22.6458   60.6953 C   0  0  0  0  0  0  0  0  0  0  0  0
   21.0467   25.2271   61.6748 C   0  0  0  0  0  0  0  0  0  0  0  0
   17.8820   23.1474   64.8667 C   0  0  1  0  0  0  0  0  0  0  0  0
   19.2644   23.9347   63.4003 N   0  0  0  0  0  0  0  0  0  0  0  0
   19.6039   25.3362   62.9789 C   0  0  0  0  0  0  0  0  0  0  0  0
   20.2271   25.8603   62.1821 N   0  0  0  0  0  0  0  0  0  0  0  0
   17.0172   23.4419   65.9798 C   0  0  0  0  0  0  0  0  0  0  0  0
   18.2043   24.0171   64.0770 C   0  0  0  0  0  0  0  0  0  0  0  0
  1  2  1  0
  2  3  1  0
  1  4  1  0
  4  5  1  0
  3  6  1  0
  6  7  1  0
  8  2  1  1
  7  8  1  0
  6  9  1  0
  7 10  1  6
  5 11  1  0
  8 12  1  0
 12 13  1  0
 10 14  1  0
 13 14  1  0
 11 15  1  1
 11 16  1  0
 12 16  1  0
M  END
$$$$
110
     RDKit          3D

 29 32  0  0  0  0  0  0  0  0999 V2000
   22.7330   22.3762   61.1096 N   0  0  0  0  0  0  0  0  0  0  0  0
   21.9740   22.2828   62.2696 C   0  0  0  0  0  0  0  0  0  0  0  0
   20.7426   23.1741   62.1313 C   0  0  2  0  0  0  0  0  0  0  0  0
   21.9278   22.5678   59.9872 C   0  0  2  0  0  0  0  0  0  0  0  0
   19.6343   22.9738   62.8798 O   0  0  0  0  0  0  0  0  0  0  0  0
   19.5204   22.5358   64.1299 C   0  0  0  0  0  0  0  0  0  0  0  0
   20.5833   23.0407   60.6591 C   0  0  2  0  0  0  0  0  0  0  0  0
   19.8991   23.4483   64.9839 O   0  0  0  0  0  0  0  0  0  0  0  0
   21.5596   21.2491   59.3072 C   0  0  0  0  0  0  0  0  0  0  0  0
   19.0641   21.3169   64.4580 C   0  0  0  0  0  0  0  0  0  0  0  0
   20.1509   24.3260   60.0534 N   0  0  0  0  0  0  0  0  0  0  0  0
   20.4293   21.0587   58.6338 N   0  0  0  0  0  0  0  0  0  0  0  0
   20.4796   20.8624   57.2052 C   0  0  2  0  0  0  0  0  0  0  0  0
   19.5546   20.0824   56.6247 C   0  0  0  0  0  0  0  0  0  0  0  0
   19.5857   19.8409   55.2153 C   0  0  0  0  0  0  0  0  0  0  0  0
   20.7238   20.2271   54.5055 C   0  0  1  0  0  0  0  0  0  0  0  0
   20.7258   19.9924   53.0224 C   0  0  0  0  0  0  0  0  0  0  0  0
   21.4887   21.3838   56.4046 N   0  0  0  0  0  0  0  0  0  0  0  0
   21.4517   21.0954   55.0210 C   0  0  0  0  0  0  0  0  0  0  0  0
   20.8697   25.3837   60.2678 C   0  0  0  0  0  0  0  0  0  0  0  0
   19.4139   24.1931   58.8312 C   0  0  0  0  0  0  0  0  0  0  0  0
   18.9168   23.1458   58.3469 O   0  0  0  0  0  0  0  0  0  0  0  0
   18.9273   25.4652   58.2846 C   0  0  1  0  0  0  0  0  0  0  0  0
   20.2980   26.6062   59.6721 N   0  0  0  0  0  0  0  0  0  0  0  0
   19.3650   26.5926   58.8789 C   0  0  1  0  0  0  0  0  0  0  0  0
   19.1675   27.7195   58.0061 C   0  0  0  0  0  0  0  0  0  0  0  0
   18.5899   27.6643   56.7196 C   0  0  0  0  0  0  0  0  0  0  0  0
   18.0714   26.3476   56.3345 C   0  0  0  0  0  0  0  0  0  0  0  0
   18.3933   25.2158   57.0468 N   0  0  0  0  0  0  0  0  0  0  0  0
  1  2  1  0
  2  3  1  0
  1  4  1  0
  3  5  1  1
  5  6  1  0
  3  7  1  0
  4  7  1  0
  6  8  2  0
  4  9  1  1
  6 10  1  0
  7 11  1  6
  9 12  1  0
 13 12  1  1
 13 14  1  0
 14 15  1  0
 15 16  1  0
 16 17  1  6
 13 18  1  0
 16 19  1  0
 18 19  1  0
 11 20  1  0
 11 21  1  0
 21 22  2  0
 21 23  1  0
 20 24  1  0
 23 25  1  0
 24 25  1  0
 25 26  1  6
 26 27  1  0
 27 28  1  0
 23 29  1  6
 28 29  1  0
M  END
$$$$
111
     RDKit          3D

 29 32  0  0  0  0  0  0  0  0999 V2000
   22.6125   21.9801   61.6250 N   0  0  0  0  0  0  0  0  0  0  0  0
   21.6773   22.1523   62.5264 C   0  0  2  0  0  0  0  0  0  0  0  0
   20.5687   22.9375   62.0174 C   0  0  2  0  0  0  0  0  0  0  0  0
   22.1734   22.1578   60.3222 C   0  0  0  0  0  0  0  0  0  0  0  0
   20.8429   22.9614   60.5146 C   0  0  1  0  0  0  0  0  0  0  0  0
   19.8366   22.4807   59.5567 C   0  0  0  0  0  0  0  0  0  0  0  0
   20.1063   22.7421   58.2456 N   0  0  0  0  0  0  0  0  0  0  0  0
   19.5685   23.6459   62.4976 O   0  0  0  0  0  0  0  0  0  0  0  0
   19.6324   23.8668   57.7487 C   0  0  2  0  0  0  0  0  0  0  0  0
   19.4623   21.5204   57.5024 C   0  0  0  0  0  0  0  0  0  0  0  0
   19.8197   24.3832   63.6245 C   0  0  2  0  0  0  0  0  0  0  0  0
   20.2089   24.4392   56.6171 C   0  0  0  0  0  0  0  0  0  0  0  0
   20.0217   25.9230   56.3719 C   0  0  0  0  0  0  0  0  0  0  0  0
   20.3867   20.3778   57.2000 C   0  0  0  0  0  0  0  0  0  0  0  0
   20.9136   20.3429   55.9147 C   0  0  0  0  0  0  0  0  0  0  0  0
   20.0823   20.0929   54.8340 C   0  0  0  0  0  0  0  0  0  0  0  0
   18.7077   19.6093   54.9715 C   0  0  0  0  0  0  0  0  0  0  0  0
   19.3454   24.9394   58.7792 C   0  0  0  0  0  0  0  0  0  0  0  0
   20.5468   26.6097   55.3129 C   0  0  0  0  0  0  0  0  0  0  0  0
   18.9626   25.0153   59.8350 O   0  0  0  0  0  0  0  0  0  0  0  0
   21.1613   26.0644   54.3648 O   0  0  0  0  0  0  0  0  0  0  0  0
   20.2460   27.8440   55.2152 O   0  0  0  0  0  0  0  0  0  0  0  0
   19.4306   26.1924   57.8535 N   0  0  0  0  0  0  0  0  0  0  0  0
   20.0577   25.7378   63.4689 C   0  0  0  0  0  0  0  0  0  0  0  0
   20.8978   23.6909   64.4951 C   0  0  1  0  0  0  0  0  0  0  0  0
   21.5177   22.4710   63.9340 N   0  0  0  0  0  0  0  0  0  0  0  0
   20.3878   26.5140   64.5976 C   0  0  0  0  0  0  0  0  0  0  0  0
   21.4240   25.9817   65.5522 C   0  0  0  0  0  0  0  0  0  0  0  0
   21.3990   24.4679   65.6101 C   0  0  0  0  0  0  0  0  0  0  0  0
  2  1  1  6
  2  3  1  0
  1  4  1  0
  3  5  1  0
  4  5  1  0
  5  6  1  6
  6  7  1  0
  3  8  1  1
  9  7  1  1
  7 10  1  0
  8 11  1  0
  9 12  1  0
 12 13  1  0
 10 14  1  0
 14 15  1  0
 15 16  1  0
 16 17  1  0
  9 18  1  0
 13 19  1  0
 18 20  2  0
 19 21  2  0
 19 22  1  0
 13 23  2  0
 18 23  1  0
 11 24  1  6
 11 25  1  0
  2 26  1  0
 25 26  1  0
 24 27  1  0
 27 28  1  0
 25 29  1  6
 28 29  1  0
M  END
$$$$
112
     RDKit          3D

 29 30  0  0  0  0  0  0  0  0999 V2000
   22.6125   21.9801   61.6250 N   0  0  0  0  0  0  0  0  0  0  0  0
   21.6773   22.1523   62.5264 C   0  0  0  0  0  0  0  0  0  0  0  0
   20.5687   22.9375   62.0174 C   0  0  2  0  0  0  0  0  0  0  0  0
   22.1734   22.1578   60.3222 C   0  0  0  0  0  0  0  0  0  0  0  0
   20.8429   22.9614   60.5146 C   0  0  1  0  0  0  0  0  0  0  0  0
   19.8366   22.4807   59.5567 C   0  0  0  0  0  0  0  0  0  0  0  0
   20.1063   22.7421   58.2456 N   0  0  0  0  0  0  0  0  0  0  0  0
   19.5685   23.6459   62.4976 O   0  0  0  0  0  0  0  0  0  0  0  0
   19.6324   23.8668   57.7487 C   0  0  2  0  0  0  0  0  0  0  0  0
   19.4623   21.5204   57.5024 C   0  0  0  0  0  0  0  0  0  0  0  0
   19.8197   24.3832   63.6245 C   0  0  1  0  0  0  0  0  0  0  0  0
   20.2089   24.4392   56.6171 C   0  0  0  0  0  0  0  0  0  0  0  0
   20.0217   25.9230   56.3719 C   0  0  2  0  0  0  0  0  0  0  0  0
   20.3867   20.3778   57.2000 C   0  0  0  0  0  0  0  0  0  0  0  0
   20.9136   20.3429   55.9147 C   0  0  0  0  0  0  0  0  0  0  0  0
   20.0823   20.0929   54.8340 C   0  0  0  0  0  0  0  0  0  0  0  0
   18.7077   19.6093   54.9715 C   0  0  0  0  0  0  0  0  0  0  0  0
   19.3454   24.9394   58.7792 C   0  0  0  0  0  0  0  0  0  0  0  0
   20.5468   26.6097   55.3129 C   0  0  0  0  0  0  0  0  0  0  0  0
   18.9626   25.0153   59.8350 O   0  0  0  0  0  0  0  0  0  0  0  0
   21.1613   26.0644   54.3648 O   0  0  0  0  0  0  0  0  0  0  0  0
   20.1134   25.7461   63.4077 C   0  0  0  0  0  0  0  0  0  0  0  0
   19.6148   26.3316   58.1218 C   0  0  0  0  0  0  0  0  0  0  0  0
   20.2413   27.8738   55.2561 O   0  0  0  0  0  0  0  0  0  0  0  0
   18.7441   24.2954   64.6932 C   0  0  0  0  0  0  0  0  0  0  0  0
   18.5791   22.9819   65.2546 O   0  0  0  0  0  0  0  0  0  0  0  0
   18.4679   22.6643   66.4430 C   0  0  0  0  0  0  0  0  0  0  0  0
   21.4316   26.0226   63.0109 C   0  0  0  0  0  0  0  0  0  0  0  0
   18.2357   25.2694   65.3133 O   0  0  0  0  0  0  0  0  0  0  0  0
  1  2  1  0
  2  3  1  0
  1  4  1  0
  3  5  1  0
  4  5  1  0
  5  6  1  6
  6  7  1  0
  3  8  1  1
  9  7  1  1
  7 10  1  0
  8 11  1  0
  9 12  1  0
 12 13  1  0
 10 14  1  0
 14 15  1  0
 15 16  1  0
 16 17  1  0
  9 18  1  0
 13 19  1  1
 18 20  2  0
 19 21  2  0
 11 22  1  6
 13 23  1  0
 18 23  1  0
 19 24  1  0
 11 25  1  0
 25 26  1  0
 26 27  1  0
 22 28  1  0
 25 29  2  0
M  END
$$$$
12
     RDKit          3D

 16 17  0  0  0  0  0  0  0  0999 V2000
   22.7330   22.3762   61.1096 N   0  0  0  0  0  0  0  0  0  0  0  0
   21.9740   22.2828   62.2696 C   0  0  0  0  0  0  0  0  0  0  0  0
   20.8828   23.2182   62.2241 C   0  0  0  0  0  0  0  0  0  0  0  0
   19.9989   23.1639   63.1536 C   0  0  0  0  0  0  0  0  0  0  0  0
   20.1824   23.3458   64.4437 C   0  0  0  0  0  0  0  0  0  0  0  0
   19.0956   23.2212   65.4001 C   0  0  0  0  0  0  0  0  0  0  0  0
   19.3037   23.6599   66.6216 C   0  0  0  0  0  0  0  0  0  0  0  0
   17.9122   22.6179   65.0350 C   0  0  0  0  0  0  0  0  0  0  0  0
   20.8673   24.1415   61.1517 C   0  0  1  0  0  0  0  0  0  0  0  0
   16.9651   22.3913   65.9212 N   0  0  0  0  0  0  0  0  0  0  0  0
   21.3860   23.7533   59.8896 N   0  0  0  0  0  0  0  0  0  0  0  0
   22.3335   22.7657   59.9460 C   0  0  0  0  0  0  0  0  0  0  0  0
   18.2620   23.5641   67.6466 C   0  0  0  0  0  0  0  0  0  0  0  0
   17.1014   22.8224   67.1938 C   0  0  0  0  0  0  0  0  0  0  0  0
   19.7677   25.1459   61.0964 O   0  0  0  0  0  0  0  0  0  0  0  0
   20.2494   26.3613   61.6011 C   0  0  0  0  0  0  0  0  0  0  0  0
  1  2  1  0
  2  3  1  0
  3  4  1  0
  4  5  1  0
  5  6  1  0
  6  7  1  0
  6  8  1  0
  3  9  1  0
  8 10  1  0
  9 11  1  0
  1 12  1  0
 11 12  1  0
  7 13  1  0
 10 14  1  0
 13 14  1  0
  9 15  1  6
 15 16  1  0
M  END
$$$$
13
     RDKit          3D

 17 19  0  0  0  0  0  0  0  0999 V2000
   18.2775   19.5347   54.8773 C   0  0  2  0  0  0  0  0  0  0  0  0
   18.7461   19.5031   56.1516 C   0  0  0  0  0  0  0  0  0  0  0  0
   20.0785   19.8313   56.5935 C   0  0  1  0  0  0  0  0  0  0  0  0
   17.0006   19.2480   54.5658 N   0  0  0  0  0  0  0  0  0  0  0  0
   19.3056   19.7406   53.8727 N   0  0  0  0  0  0  0  0  0  0  0  0
   20.9560   20.1853   55.5551 C   0  0  1  0  0  0  0  0  0  0  0  0
   20.6584   20.2557   57.9049 C   0  0  0  0  0  0  0  0  0  0  0  0
   21.6802   20.6672   58.1403 N   0  0  0  0  0  0  0  0  0  0  0  0
   22.2793   20.5385   55.8476 N   0  0  0  0  0  0  0  0  0  0  0  0
   22.0567   20.9246   59.5237 C   0  0  2  0  0  0  0  0  0  0  0  0
   20.7516   21.1222   60.2565 C   0  0  0  0  0  0  0  0  0  0  0  0
   22.5952   20.7289   57.1840 C   0  0  0  0  0  0  0  0  0  0  0  0
   23.0451   21.1523   60.1108 N   0  0  0  0  0  0  0  0  0  0  0  0
   20.5818   20.0943   54.2246 C   0  0  0  0  0  0  0  0  0  0  0  0
   23.1788   21.7916   61.2925 C   0  0  0  0  0  0  0  0  0  0  0  0
   20.7464   21.7378   61.5105 C   0  0  0  0  0  0  0  0  0  0  0  0
   21.9780   22.1255   62.0040 N   0  0  0  0  0  0  0  0  0  0  0  0
  1  2  1  0
  3  2  1  6
  1  4  1  6
  1  5  1  0
  3  6  1  0
  3  7  1  0
  7  8  1  0
  6  9  1  0
 10  8  1  6
 10 11  1  0
  8 12  1  0
  9 12  1  0
 10 13  1  0
  5 14  1  0
  6 14  1  6
 13 15  1  0
 11 16  1  0
 15 17  1  0
 16 17  1  0
M  END
$$$$
14
     RDKit          3D

 18 19  0  0  0  0  0  0  0  0999 V2000
   21.3144   28.5394   54.7269 O   0  0  0  0  0  0  0  0  0  0  0  0
   20.7870   27.3784   54.7834 C   0  0  0  0  0  0  0  0  0  0  0  0
   20.2353   26.9019   56.0017 C   0  0  0  0  0  0  0  0  0  0  0  0
   19.6732   27.6393   56.8840 C   0  0  0  0  0  0  0  0  0  0  0  0
   19.2381   26.8753   58.0869 C   0  0  0  0  0  0  0  0  0  0  0  0
   20.5171   26.7177   53.5307 O   0  0  0  0  0  0  0  0  0  0  0  0
   19.3804   25.4879   58.1391 C   0  0  0  0  0  0  0  0  0  0  0  0
   20.4976   25.4068   56.0325 C   0  0  0  0  0  0  0  0  0  0  0  0
   20.0437   24.7536   57.1901 C   0  0  2  0  0  0  0  0  0  0  0  0
   20.1521   23.3132   57.3716 C   0  0  1  0  0  0  0  0  0  0  0  0
   20.2921   22.4306   56.4828 N   0  0  0  0  0  0  0  0  0  0  0  0
   20.1276   21.1822   56.4612 C   0  0  2  0  0  0  0  0  0  0  0  0
   20.1640   22.7729   58.8394 C   0  0  0  0  0  0  0  0  0  0  0  0
   20.1174   20.4432   57.7799 C   0  0  0  0  0  0  0  0  0  0  0  0
   20.1399   21.2591   58.9426 C   0  0  0  0  0  0  0  0  0  0  0  0
   20.0645   20.2739   55.1466 C   0  0  0  0  0  0  0  0  0  0  0  0
   21.1852   20.3811   54.3372 C   0  0  0  0  0  0  0  0  0  0  0  0
   19.3479   19.1568   55.2907 C   0  0  0  0  0  0  0  0  0  0  0  0
  1  2  1  0
  2  3  1  0
  3  4  1  0
  4  5  1  0
  2  6  2  0
  5  7  1  0
  3  8  1  0
  9  7  1  6
  8  9  1  0
  9 10  1  0
 10 11  1  0
 11 12  1  0
 10 13  1  1
 12 14  1  0
 13 15  1  0
 14 15  1  0
 12 16  1  6
 16 17  1  0
 16 18  1  0
M  END
$$$$
15
     RDKit          3D

 18 20  0  0  0  0  0  0  0  0999 V2000
   20.1989   20.7786   64.0831 C   0  0  0  0  0  0  0  0  0  0  0  0
   20.7543   21.7693   63.2682 C   0  0  2  0  0  0  0  0  0  0  0  0
   20.0238   22.9097   63.0990 C   0  0  2  0  0  0  0  0  0  0  0  0
   21.1528   21.2813   61.8709 O   0  0  0  0  0  0  0  0  0  0  0  0
   21.8045   22.1747   61.0494 C   0  0  1  0  0  0  0  0  0  0  0  0
   20.6180   24.1339   62.5762 C   0  0  1  0  0  0  0  0  0  0  0  0
   21.7031   24.6415   63.3411 O   0  0  0  0  0  0  0  0  0  0  0  0
   18.9524   21.2772   64.5651 C   0  0  0  0  0  0  0  0  0  0  0  0
   21.3378   25.2800   64.3387 C   0  0  0  0  0  0  0  0  0  0  0  0
   19.0680   22.8301   64.1292 C   0  0  0  0  0  0  0  0  0  0  0  0
   21.0165   23.4191   61.0495 C   0  0  0  0  0  0  0  0  0  0  0  0
   23.1167   22.3140   61.4681 O   0  0  0  0  0  0  0  0  0  0  0  0
   20.6958   24.2143   60.0286 O   0  0  0  0  0  0  0  0  0  0  0  0
   21.6537   24.8137   65.6559 C   0  0  0  0  0  0  0  0  0  0  0  0
   21.4788   25.7882   66.6183 C   0  0  0  0  0  0  0  0  0  0  0  0
   20.8567   27.0130   66.3761 C   0  0  0  0  0  0  0  0  0  0  0  0
   20.6316   26.4744   64.0957 C   0  0  0  0  0  0  0  0  0  0  0  0
   20.4264   27.3898   65.2180 C   0  0  0  0  0  0  0  0  0  0  0  0
  2  1  1  6
  2  3  1  0
  2  4  1  0
  4  5  1  0
  3  6  1  0
  6  7  1  1
  1  8  1  0
  7  9  1  0
  3 10  1  1
  8 10  1  0
  5 11  1  0
  6 11  1  0
  5 12  1  1
 11 13  2  0
  9 14  1  0
 14 15  1  0
 15 16  1  0
  9 17  1  0
 16 18  1  0
 17 18  1  0
M  END
$$$$
16
     RDKit          3D

 18 19  0  0  0  0  0  0  0  0999 V2000
   21.0347   27.9269   54.5582 O   0  0  0  0  0  0  0  0  0  0  0  0
   20.2167   27.0616   54.6892 C   0  0  0  0  0  0  0  0  0  0  0  0
   20.5571   26.0308   55.7764 C   0  0  0  0  0  0  0  0  0  0  0  0
   19.8518   26.1441   56.9747 C   0  0  1  0  0  0  0  0  0  0  0  0
   19.2034   26.8016   53.9538 O   0  0  0  0  0  0  0  0  0  0  0  0
   21.3564   25.2361   55.6016 O   0  0  0  0  0  0  0  0  0  0  0  0
   19.2291   27.2194   57.5689 C   0  0  0  0  0  0  0  0  0  0  0  0
   19.6670   24.7863   57.7213 C   0  0  0  0  0  0  0  0  0  0  0  0
   19.1769   24.7282   59.0011 C   0  0  0  0  0  0  0  0  0  0  0  0
   18.7790   25.9313   59.6219 C   0  0  0  0  0  0  0  0  0  0  0  0
   18.8709   27.1809   58.8796 C   0  0  0  0  0  0  0  0  0  0  0  0
   19.1135   23.4706   59.6982 O   0  0  0  0  0  0  0  0  0  0  0  0
   20.3628   22.7982   59.7784 C   0  0  0  0  0  0  0  0  0  0  0  0
   20.4032   21.4343   59.3981 C   0  0  0  0  0  0  0  0  0  0  0  0
   21.3563   23.1731   60.6610 C   0  0  0  0  0  0  0  0  0  0  0  0
   21.5026   20.6808   59.6106 C   0  0  0  0  0  0  0  0  0  0  0  0
   22.5357   21.2249   60.4461 N   0  0  0  0  0  0  0  0  0  0  0  0
   22.4157   22.4876   60.9564 C   0  0  0  0  0  0  0  0  0  0  0  0
  1  2  1  0
  2  3  1  0
  4  3  1  6
  2  5  2  0
  3  6  1  0
  4  7  1  0
  4  8  1  0
  8  9  1  0
  9 10  1  0
  7 11  1  0
 10 11  1  0
  9 12  1  0
 12 13  1  0
 13 14  1  0
 13 15  1  0
 14 16  1  0
 16 17  1  0
 15 18  1  0
 17 18  1  0
M  END
$$$$
17
     RDKit          3D

 18 19  0  0  0  0  0  0  0  0999 V2000
   20.9852   21.4046   63.3158 O   0  0  0  0  0  0  0  0  0  0  0  0
   20.8727   22.4856   62.6536 C   0  0  0  0  0  0  0  0  0  0  0  0
   21.6314   22.6675   61.4304 C   0  0  2  0  0  0  0  0  0  0  0  0
   20.9282   22.8507   60.3461 C   0  0  1  0  0  0  0  0  0  0  0  0
   19.8196   23.2430   62.8457 O   0  0  0  0  0  0  0  0  0  0  0  0
   20.5802   24.1500   59.9467 C   0  0  0  0  0  0  0  0  0  0  0  0
   22.6758   21.6440   61.4313 N   0  0  0  0  0  0  0  0  0  0  0  0
   20.3426   25.1150   60.9597 C   0  0  0  0  0  0  0  0  0  0  0  0
   21.4314   21.8350   59.2931 C   0  0  0  0  0  0  0  0  0  0  0  0
   20.4313   24.5033   58.6173 N   0  0  0  0  0  0  0  0  0  0  0  0
   22.4212   21.0465   60.1143 C   0  0  0  0  0  0  0  0  0  0  0  0
   19.7434   25.3693   58.0591 C   0  0  1  0  0  0  0  0  0  0  0  0
   19.4073   26.5493   58.9643 C   0  0  0  0  0  0  0  0  0  0  0  0
   19.4655   25.5554   56.6344 C   0  0  0  0  0  0  0  0  0  0  0  0
   20.4632   25.9949   55.8495 C   0  0  0  0  0  0  0  0  0  0  0  0
   20.4715   27.2220   55.4785 O   0  0  0  0  0  0  0  0  0  0  0  0
   21.0027   25.2027   54.9238 N   0  0  0  0  0  0  0  0  0  0  0  0
   19.8097   26.2632   60.4948 C   0  0  0  0  0  0  0  0  0  0  0  0
  1  2  2  0
  3  2  1  1
  3  4  1  0
  2  5  1  0
  4  6  1  6
  3  7  1  0
  6  8  1  0
  4  9  1  0
  6 10  1  0
  7 11  1  0
  9 11  1  0
 10 12  1  0
 12 13  1  0
 12 14  1  6
 14 15  1  0
 15 16  2  0
 15 17  1  0
  8 18  1  0
 13 18  1  0
M  END
$$$$
18
     RDKit          3D

 19 22  0  0  0  0  0  0  0  0999 V2000
   18.2775   19.5347   54.8773 C   0  0  2  0  0  0  0  0  0  0  0  0
   18.7461   19.5031   56.1516 C   0  0  0  0  0  0  0  0  0  0  0  0
   20.0785   19.8313   56.5935 C   0  0  1  0  0  0  0  0  0  0  0  0
   17.0006   19.2480   54.5658 N   0  0  0  0  0  0  0  0  0  0  0  0
   19.3056   19.7406   53.8727 N   0  0  0  0  0  0  0  0  0  0  0  0
   20.9560   20.1853   55.5551 C   0  0  1  0  0  0  0  0  0  0  0  0
   20.6584   20.2557   57.9049 C   0  0  1  0  0  0  0  0  0  0  0  0
   21.6802   20.6672   58.1403 N   0  0  0  0  0  0  0  0  0  0  0  0
   22.2793   20.5385   55.8476 N   0  0  0  0  0  0  0  0  0  0  0  0
   22.0567   20.9246   59.5237 C   0  0  2  0  0  0  0  0  0  0  0  0
   20.7516   21.1222   60.2565 C   0  0  2  0  0  0  0  0  0  0  0  0
   20.5841   20.1092   54.2486 C   0  0  0  0  0  0  0  0  0  0  0  0
   19.7910   20.4670   59.0630 O   0  0  0  0  0  0  0  0  0  0  0  0
   20.8095   22.5240   60.4600 C   0  0  1  0  0  0  0  0  0  0  0  0
   22.6231   20.7016   57.1180 C   0  0  0  0  0  0  0  0  0  0  0  0
   19.5826   22.7593   61.2557 O   0  0  0  0  0  0  0  0  0  0  0  0
   23.0846   21.5874   60.0964 C   0  0  0  0  0  0  0  0  0  0  0  0
   22.1617   22.6799   60.9465 C   0  0  2  0  0  0  0  0  0  0  0  0
   22.4005   22.1851   62.3594 O   0  0  0  0  0  0  0  0  0  0  0  0
  1  2  1  0
  3  2  1  6
  1  4  1  6
  1  5  1  0
  3  6  1  0
  3  7  1  0
  7  8  1  0
  6  9  1  0
  8 10  1  0
 10 11  1  0
  5 12  1  0
  6 12  1  6
  7 13  1  6
 11 13  1  6
 11 14  1  0
  8 15  1  0
  9 15  1  0
 14 16  1  1
 10 17  1  6
 14 18  1  0
 17 18  1  0
 18 19  1  1
M  END
$$$$
19
     RDKit          3D

 19 21  0  0  0  0  0  0  0  0999 V2000
   20.1989   20.7786   64.0831 C   0  0  0  0  0  0  0  0  0  0  0  0
   20.7543   21.7693   63.2682 C   0  0  2  0  0  0  0  0  0  0  0  0
   20.0238   22.9097   63.0990 C   0  0  2  0  0  0  0  0  0  0  0  0
   21.1528   21.2813   61.8709 O   0  0  0  0  0  0  0  0  0  0  0  0
   21.8045   22.1747   61.0494 C   0  0  1  0  0  0  0  0  0  0  0  0
   20.6180   24.1339   62.5762 C   0  0  1  0  0  0  0  0  0  0  0  0
   21.7031   24.6415   63.3411 O   0  0  0  0  0  0  0  0  0  0  0  0
   18.9524   21.2772   64.5651 C   0  0  0  0  0  0  0  0  0  0  0  0
   21.3378   25.2800   64.3387 C   0  0  0  0  0  0  0  0  0  0  0  0
   19.0680   22.8301   64.1292 C   0  0  0  0  0  0  0  0  0  0  0  0
   21.0165   23.4191   61.0495 C   0  0  0  0  0  0  0  0  0  0  0  0
   23.1167   22.3140   61.4681 O   0  0  0  0  0  0  0  0  0  0  0  0
   20.6958   24.2143   60.0286 O   0  0  0  0  0  0  0  0  0  0  0  0
   21.6537   24.8137   65.6559 C   0  0  0  0  0  0  0  0  0  0  0  0
   21.4788   25.7882   66.6183 C   0  0  0  0  0  0  0  0  0  0  0  0
   20.8567   27.0130   66.3761 C   0  0  0  0  0  0  0  0  0  0  0  0
   20.4882   26.4334   64.0692 C   0  0  0  0  0  0  0  0  0  0  0  0
   20.7623   27.9312   67.4447 O   0  0  0  0  0  0  0  0  0  0  0  0
   20.3337   27.3163   65.1591 C   0  0  0  0  0  0  0  0  0  0  0  0
  2  1  1  6
  2  3  1  0
  2  4  1  0
  4  5  1  0
  3  6  1  0
  6  7  1  1
  1  8  1  0
  7  9  1  0
  3 10  1  1
  8 10  1  0
  5 11  1  0
  6 11  1  0
  5 12  1  1
 11 13  2  0
  9 14  1  0
 14 15  1  0
 15 16  1  0
  9 17  1  0
 16 18  1  0
 16 19  1  0
 17 19  1  0
M  END
$$$$
2
     RDKit          3D

  9  9  0  0  0  0  0  0  0  0999 V2000
   22.3698   20.8899   55.0905 C   0  0  0  0  0  0  0  0  0  0  0  0
   21.5573   20.1117   55.9190 C   0  0  0  0  0  0  0  0  0  0  0  0
   21.7498   21.1126   53.8276 C   0  0  0  0  0  0  0  0  0  0  0  0
   20.2958   20.9566   53.7406 C   0  0  0  0  0  0  0  0  0  0  0  0
   20.2460   19.8108   55.8175 C   0  0  0  0  0  0  0  0  0  0  0  0
   19.6674   20.1727   54.8152 C   0  0  0  0  0  0  0  0  0  0  0  0
   18.2513   19.7966   54.4178 C   0  0  0  0  0  0  0  0  0  0  0  0
   17.7669   19.8468   53.2432 O   0  0  0  0  0  0  0  0  0  0  0  0
   17.3998   19.2990   55.3258 N   0  0  0  0  0  0  0  0  0  0  0  0
  1  2  1  0
  1  3  1  0
  3  4  1  0
  2  5  1  0
  4  6  1  0
  5  6  1  0
  6  7  1  0
  7  8  2  0
  7  9  1  0
M  END
$$$$
20
     RDKit          3D

 19 21  0  0  0  0  0  0  0  0999 V2000
   21.0347   27.9269   54.5582 O   0  0  0  0  0  0  0  0  0  0  0  0
   20.4662   26.8777   55.0560 C   0  0  1  0  0  0  0  0  0  0  0  0
   19.8977   26.7767   56.1838 C   0  0  0  0  0  0  0  0  0  0  0  0
   20.4106   25.7552   54.0986 C   0  0  0  0  0  0  0  0  0  0  0  0
   19.9152   24.5494   54.6359 C   0  0  0  0  0  0  0  0  0  0  0  0
   19.4409   25.5728   56.7587 C   0  0  1  0  0  0  0  0  0  0  0  0
   19.5864   24.3908   55.9492 C   0  0  0  0  0  0  0  0  0  0  0  0
   18.8530   25.4475   58.2255 C   0  0  0  0  0  0  0  0  0  0  0  0
   19.9718   25.4644   59.2147 C   0  0  0  0  0  0  0  0  0  0  0  0
   20.0848   24.1523   59.7542 C   0  0  2  0  0  0  0  0  0  0  0  0
   21.2177   23.6532   60.4180 N   0  0  0  0  0  0  0  0  0  0  0  0
   19.5048   23.1263   59.1811 O   0  0  0  0  0  0  0  0  0  0  0  0
   20.3784   21.9485   59.6168 C   0  0  0  0  0  0  0  0  0  0  0  0
   21.6047   24.1632   61.6130 C   0  0  1  0  0  0  0  0  0  0  0  0
   22.3252   23.1951   62.4095 N   0  0  0  0  0  0  0  0  0  0  0  0
   21.4508   22.2298   60.4384 C   0  0  1  0  0  0  0  0  0  0  0  0
   22.5608   21.7276   60.0214 N   0  0  0  0  0  0  0  0  0  0  0  0
   21.5883   25.4401   62.0972 N   0  0  0  0  0  0  0  0  0  0  0  0
   22.0713   21.9068   61.7138 C   0  0  0  0  0  0  0  0  0  0  0  0
  2  1  1  6
  2  3  1  0
  2  4  1  0
  4  5  1  0
  3  6  1  0
  5  7  1  0
  6  7  1  0
  6  8  1  1
  8  9  1  0
 10  9  1  6
 10 11  1  0
 10 12  1  0
 12 13  1  0
 11 14  1  0
 14 15  1  0
 11 16  1  0
 13 16  1  0
 16 17  1  6
 14 18  1  6
 15 19  1  0
 16 19  1  0
M  END
$$$$
21
     RDKit          3D

 19 22  0  0  0  0  0  0  0  0999 V2000
   21.0347   27.9269   54.5582 O   0  0  0  0  0  0  0  0  0  0  0  0
   20.4662   26.8777   55.0560 C   0  0  1  0  0  0  0  0  0  0  0  0
   19.8977   26.7767   56.1838 C   0  0  0  0  0  0  0  0  0  0  0  0
   20.4106   25.7552   54.0986 C   0  0  0  0  0  0  0  0  0  0  0  0
   19.9152   24.5494   54.6359 C   0  0  0  0  0  0  0  0  0  0  0  0
   19.4409   25.5728   56.7587 C   0  0  1  0  0  0  0  0  0  0  0  0
   19.5864   24.3908   55.9492 C   0  0  0  0  0  0  0  0  0  0  0  0
   18.8530   25.4475   58.2255 C   0  0  0  0  0  0  0  0  0  0  0  0
   19.9718   25.4644   59.2147 C   0  0  0  0  0  0  0  0  0  0  0  0
   20.0848   24.1523   59.7542 C   0  0  2  0  0  0  0  0  0  0  0  0
   21.2177   23.6532   60.4180 N   0  0  0  0  0  0  0  0  0  0  0  0
   19.5048   23.1263   59.1811 O   0  0  0  0  0  0  0  0  0  0  0  0
   20.3784   21.9485   59.6168 C   0  0  0  0  0  0  0  0  0  0  0  0
   21.6047   24.1632   61.6130 C   0  0  1  0  0  0  0  0  0  0  0  0
   22.3252   23.1951   62.4095 N   0  0  0  0  0  0  0  0  0  0  0  0
   21.4508   22.2298   60.4384 C   0  0  1  0  0  0  0  0  0  0  0  0
   22.5608   21.7276   60.0214 N   0  0  0  0  0  0  0  0  0  0  0  0
   21.5883   25.4401   62.0972 N   0  0  0  0  0  0  0  0  0  0  0  0
   22.0713   21.9068   61.7138 C   0  0  1  0  0  0  0  0  0  0  0  0
  2  1  1  6
  2  3  1  0
  2  4  1  0
  4  5  1  0
  3  6  1  0
  5  7  1  0
  6  7  1  0
  6  8  1  1
  8  9  1  0
 10  9  1  6
 10 11  1  0
 10 12  1  0
 12 13  1  0
 11 14  1  0
 14 15  1  0
 11 16  1  0
 16 13  1  6
 16 17  1  0
 14 18  1  6
 19 15  1  1
 16 19  1  0
 17 19  1  0
M  END
$$$$
22
     RDKit          3D

 20 21  0  0  0  0  0  0  0  0999 V2000
   22.7288   21.9193   61.8949 N   0  0  0  0  0  0  0  0  0  0  0  0
   21.5630   22.4329   61.7486 C   0  0  2  0  0  0  0  0  0  0  0  0
   21.0222   22.6287   60.4559 C   0  0  1  0  0  0  0  0  0  0  0  0
   21.3652   21.9110   59.4523 N   0  0  0  0  0  0  0  0  0  0  0  0
   20.6904   21.2435   58.5374 C   0  0  0  0  0  0  0  0  0  0  0  0
   19.9886   23.5790   60.1792 N   0  0  0  0  0  0  0  0  0  0  0  0
   21.0372   20.4206   57.5220 C   0  0  0  0  0  0  0  0  0  0  0  0
   20.8957   23.1510   62.8191 N   0  0  0  0  0  0  0  0  0  0  0  0
   20.0983   19.9076   56.5736 C   0  0  2  0  0  0  0  0  0  0  0  0
   19.9253   24.0461   62.5504 C   0  0  2  0  0  0  0  0  0  0  0  0
   18.8352   19.9339   56.8754 C   0  0  0  0  0  0  0  0  0  0  0  0
   20.8478   19.3312   55.3658 C   0  0  0  0  0  0  0  0  0  0  0  0
   19.6614   24.2963   61.2193 N   0  0  0  0  0  0  0  0  0  0  0  0
   19.1722   21.3566   58.5850 C   0  0  0  0  0  0  0  0  0  0  0  0
   18.3645   20.7393   57.7873 N   0  0  0  0  0  0  0  0  0  0  0  0
   19.4307   24.7593   63.5998 N   0  0  0  0  0  0  0  0  0  0  0  0
   19.7280   26.1106   63.7353 C   0  0  0  0  0  0  0  0  0  0  0  0
   20.9548   26.3112   64.4445 C   0  0  0  0  0  0  0  0  0  0  0  0
   21.4450   25.4450   65.2106 C   0  0  0  0  0  0  0  0  0  0  0  0
   20.9001   27.7142   65.1528 C   0  0  0  0  0  0  0  0  0  0  0  0
  2  1  1  6
  2  3  1  0
  3  4  1  1
  4  5  1  0
  3  6  1  0
  5  7  1  0
  2  8  1  0
  7  9  1  0
  8 10  1  0
  9 11  1  0
  9 12  1  1
  6 13  1  0
 10 13  1  0
  5 14  1  0
 11 15  1  0
 14 15  1  0
 10 16  1  1
 16 17  1  0
 17 18  1  0
 18 19  1  0
 18 20  1  0
M  END
$$$$
23
     RDKit          3D

 20 22  0  0  0  0  0  0  0  0999 V2000
   21.0347   27.9269   54.5582 O   0  0  0  0  0  0  0  0  0  0  0  0
   20.4662   26.8777   55.0560 C   0  0  1  0  0  0  0  0  0  0  0  0
   19.8977   26.7767   56.1838 C   0  0  0  0  0  0  0  0  0  0  0  0
   20.4106   25.7552   54.0986 C   0  0  0  0  0  0  0  0  0  0  0  0
   19.9152   24.5494   54.6359 C   0  0  0  0  0  0  0  0  0  0  0  0
   19.4409   25.5728   56.7587 C   0  0  1  0  0  0  0  0  0  0  0  0
   19.5864   24.3908   55.9492 C   0  0  0  0  0  0  0  0  0  0  0  0
   18.8530   25.4475   58.2255 C   0  0  0  0  0  0  0  0  0  0  0  0
   19.9718   25.4644   59.2147 C   0  0  1  0  0  0  0  0  0  0  0  0
   19.7861   26.2245   60.2591 N   0  0  0  0  0  0  0  0  0  0  0  0
   20.4427   26.3420   61.3360 C   0  0  0  0  0  0  0  0  0  0  0  0
   20.2169   24.1648   59.8285 C   0  0  2  0  0  0  0  0  0  0  0  0
   21.0115   24.0837   61.0679 N   0  0  0  0  0  0  0  0  0  0  0  0
   20.7531   25.0699   61.9120 C   0  0  0  0  0  0  0  0  0  0  0  0
   20.2086   22.9379   59.1007 N   0  0  0  0  0  0  0  0  0  0  0  0
   21.5910   22.8249   61.3473 C   0  0  0  0  0  0  0  0  0  0  0  0
   22.1627   22.7843   62.4743 O   0  0  0  0  0  0  0  0  0  0  0  0
   21.5074   21.6963   60.6803 C   0  0  0  0  0  0  0  0  0  0  0  0
   20.6382   21.7335   59.4696 C   0  0  0  0  0  0  0  0  0  0  0  0
   20.5222   20.6632   58.7532 O   0  0  0  0  0  0  0  0  0  0  0  0
  2  1  1  6
  2  3  1  0
  2  4  1  0
  4  5  1  0
  3  6  1  0
  5  7  1  0
  6  7  1  0
  6  8  1  1
  9  8  1  6
  9 10  1  0
 10 11  1  0
  9 12  1  0
 12 13  1  0
 11 14  1  0
 13 14  1  0
 12 15  1  6
 13 16  1  0
 16 17  1  0
 16 18  2  0
 15 19  1  0
 18 19  1  0
 19 20  2  0
M  END
$$$$
24
     RDKit          3D

 20 22  0  0  0  0  0  0  0  0999 V2000
   20.9852   21.4046   63.3158 N   0  0  0  0  0  0  0  0  0  0  0  0
   19.9507   21.7455   63.8993 C   0  0  0  0  0  0  0  0  0  0  0  0
   19.5076   21.0122   64.9664 N   0  0  0  0  0  0  0  0  0  0  0  0
   21.3857   22.0959   62.1519 C   0  0  1  0  0  0  0  0  0  0  0  0
   20.4872   23.1342   61.7816 C   0  0  2  0  0  0  0  0  0  0  0  0
   22.6403   21.8920   61.3492 N   0  0  0  0  0  0  0  0  0  0  0  0
   20.8190   23.8943   60.5278 C   0  0  2  0  0  0  0  0  0  0  0  0
   19.1600   22.9189   63.6068 N   0  0  0  0  0  0  0  0  0  0  0  0
   19.5152   23.7102   62.4396 C   0  0  1  0  0  0  0  0  0  0  0  0
   20.2976   25.1182   60.5707 N   0  0  0  0  0  0  0  0  0  0  0  0
   20.2725   23.2155   59.3104 N   0  0  0  0  0  0  0  0  0  0  0  0
   20.5301   21.9783   58.9216 C   0  0  1  0  0  0  0  0  0  0  0  0
   19.4499   24.9234   61.9288 N   0  0  0  0  0  0  0  0  0  0  0  0
   19.4641   21.1839   58.4130 C   0  0  0  0  0  0  0  0  0  0  0  0
   19.7828   20.6420   57.0025 C   0  0  2  0  0  0  0  0  0  0  0  0
   18.9187   23.7348   58.8102 C   0  0  0  0  0  0  0  0  0  0  0  0
   19.0554   19.6683   56.5543 C   0  0  0  0  0  0  0  0  0  0  0  0
   21.3167   20.2757   57.1676 C   0  0  0  0  0  0  0  0  0  0  0  0
   18.9280   19.5068   55.1457 C   0  0  0  0  0  0  0  0  0  0  0  0
   21.7334   21.4065   58.3462 N   0  0  0  0  0  0  0  0  0  0  0  0
  1  2  1  0
  2  3  1  0
  1  4  1  0
  5  4  1  1
  4  6  1  1
  5  7  1  0
  2  8  1  0
  5  9  1  0
  9  8  1  1
  7 10  1  0
  7 11  1  6
 12 11  1  6
  9 13  1  0
 10 13  1  0
 12 14  1  0
 14 15  1  0
 11 16  1  0
 15 17  1  1
 15 18  1  0
 17 19  1  0
 12 20  1  0
 18 20  1  0
M  END
$$$$
25
     RDKit          3D

 21 24  0  0  0  0  0  0  0  0999 V2000
   22.6125   21.9801   61.6250 N   0  0  0  0  0  0  0  0  0  0  0  0
   21.6773   22.1523   62.5264 C   0  0  0  0  0  0  0  0  0  0  0  0
   20.5687   22.9375   62.0174 C   0  0  2  0  0  0  0  0  0  0  0  0
   22.1734   22.1578   60.3222 C   0  0  0  0  0  0  0  0  0  0  0  0
   20.8429   22.9614   60.5146 C   0  0  1  0  0  0  0  0  0  0  0  0
   20.0825   23.4849   59.4425 C   0  0  0  0  0  0  0  0  0  0  0  0
   20.3716   24.2189   62.4922 C   0  0  2  0  0  0  0  0  0  0  0  0
   19.9886   24.4772   63.6656 N   0  0  0  0  0  0  0  0  0  0  0  0
   20.4941   25.2532   61.5562 N   0  0  0  0  0  0  0  0  0  0  0  0
   20.0023   23.5836   64.7553 C   0  0  0  0  0  0  0  0  0  0  0  0
   20.0558   25.0108   60.0637 C   0  0  1  0  0  0  0  0  0  0  0  0
   19.7381   24.1864   66.0530 C   0  0  0  0  0  0  0  0  0  0  0  0
   19.7481   26.0469   59.2323 C   0  0  0  0  0  0  0  0  0  0  0  0
   20.0054   27.2864   59.2666 O   0  0  0  0  0  0  0  0  0  0  0  0
   19.5032   23.1529   58.3859 C   0  0  0  0  0  0  0  0  0  0  0  0
   20.1089   25.6058   66.0815 C   0  0  0  0  0  0  0  0  0  0  0  0
   18.9521   25.5718   58.0826 N   0  0  0  0  0  0  0  0  0  0  0  0
   19.4903   25.8532   64.0785 C   0  0  0  0  0  0  0  0  0  0  0  0
   19.8374   26.2142   65.2751 N   0  0  0  0  0  0  0  0  0  0  0  0
   19.4852   21.8666   58.0491 C   0  0  0  0  0  0  0  0  0  0  0  0
   18.9065   24.2605   57.7254 N   0  0  0  0  0  0  0  0  0  0  0  0
  1  2  1  0
  3  2  1  1
  1  4  1  0
  3  5  1  0
  5  4  1  6
  5  6  1  0
  3  7  1  0
  7  8  1  6
  7  9  1  0
  8 10  1  0
  6 11  1  0
 11  9  1  6
 10 12  1  0
 11 13  1  0
 13 14  2  0
  6 15  1  0
 12 16  1  0
 13 17  1  0
  8 18  1  0
 16 19  1  0
 18 19  1  0
 15 20  1  0
 15 21  1  0
 17 21  1  0
M  END
$$$$
26
     RDKit          3D

 21 23  0  0  0  0  0  0  0  0999 V2000
   22.7288   21.9193   61.8949 N   0  0  0  0  0  0  0  0  0  0  0  0
   21.5630   22.4329   61.7486 C   0  0  2  0  0  0  0  0  0  0  0  0
   21.0222   22.6287   60.4559 C   0  0  1  0  0  0  0  0  0  0  0  0
   21.3652   21.9110   59.4523 N   0  0  0  0  0  0  0  0  0  0  0  0
   20.6904   21.2435   58.5374 C   0  0  0  0  0  0  0  0  0  0  0  0
   19.9886   23.5790   60.1792 N   0  0  0  0  0  0  0  0  0  0  0  0
   21.0372   20.4206   57.5220 C   0  0  0  0  0  0  0  0  0  0  0  0
   20.8957   23.1510   62.8191 N   0  0  0  0  0  0  0  0  0  0  0  0
   20.0983   19.9076   56.5736 C   0  0  2  0  0  0  0  0  0  0  0  0
   19.9253   24.0461   62.5504 C   0  0  2  0  0  0  0  0  0  0  0  0
   18.8352   19.9339   56.8754 C   0  0  0  0  0  0  0  0  0  0  0  0
   20.8478   19.3312   55.3658 C   0  0  0  0  0  0  0  0  0  0  0  0
   19.6614   24.2963   61.2193 N   0  0  0  0  0  0  0  0  0  0  0  0
   19.1722   21.3566   58.5850 C   0  0  0  0  0  0  0  0  0  0  0  0
   18.3641   20.7145   57.8359 C   0  0  0  0  0  0  0  0  0  0  0  0
   19.4254   24.7585   63.5902 C   0  0  0  0  0  0  0  0  0  0  0  0
   18.7393   24.2964   64.5365 C   0  0  0  0  0  0  0  0  0  0  0  0
   19.3738   26.2325   63.3307 C   0  0  0  0  0  0  0  0  0  0  0  0
   18.2404   25.0575   65.6358 C   0  0  0  0  0  0  0  0  0  0  0  0
   18.9102   27.0410   64.4432 C   0  0  0  0  0  0  0  0  0  0  0  0
   18.3699   26.4716   65.5034 C   0  0  0  0  0  0  0  0  0  0  0  0
  2  1  1  6
  2  3  1  0
  3  4  1  1
  4  5  1  0
  3  6  1  0
  5  7  1  0
  2  8  1  0
  7  9  1  0
  8 10  1  0
  9 11  1  0
  9 12  1  1
  6 13  1  0
 10 13  1  0
  5 14  1  0
 11 15  1  0
 14 15  1  0
 10 16  1  1
 16 17  1  0
 16 18  1  0
 17 19  1  0
 18 20  1  0
 19 21  1  0
 20 21  1  0
M  END
$$$$
27
     RDKit          3D

 21 22  0  0  0  0  0  0  0  0999 V2000
   22.9118   22.2849   61.0142 N   0  0  0  0  0  0  0  0  0  0  0  0
   22.1383   22.2157   62.1392 C   0  0  0  0  0  0  0  0  0  0  0  0
   20.8065   22.7658   61.8541 C   0  0  2  0  0  0  0  0  0  0  0  0
   20.6921   22.8010   60.3709 C   0  0  2  0  0  0  0  0  0  0  0  0
   22.0774   22.2355   59.9102 C   0  0  2  0  0  0  0  0  0  0  0  0
   20.5324   24.1528   59.8200 C   0  0  0  0  0  0  0  0  0  0  0  0
   21.7813   20.8793   59.4314 C   0  0  0  0  0  0  0  0  0  0  0  0
   20.0929   24.2931   58.5179 N   0  0  0  0  0  0  0  0  0  0  0  0
   20.5345   25.2298   60.5648 N   0  0  0  0  0  0  0  0  0  0  0  0
   20.5947   25.2311   62.0092 C   0  0  0  0  0  0  0  0  0  0  0  0
   20.4415   26.3079   62.6855 N   0  0  0  0  0  0  0  0  0  0  0  0
   20.5076   23.9453   62.6246 N   0  0  0  0  0  0  0  0  0  0  0  0
   21.5753   20.6554   57.9946 N   0  0  0  0  0  0  0  0  0  0  0  0
   21.8368   19.5016   57.3401 C   0  0  0  0  0  0  0  0  0  0  0  0
   21.4637   19.4419   55.8900 C   0  0  0  0  0  0  0  0  0  0  0  0
   19.6643   21.8790   59.7280 F   0  0  0  0  0  0  0  0  0  0  0  0
   20.8383   26.4152   64.0851 C   0  0  0  0  0  0  0  0  0  0  0  0
   20.6442   27.7844   64.6644 C   0  0  0  0  0  0  0  0  0  0  0  0
   21.3978   25.4951   64.7862 O   0  0  0  0  0  0  0  0  0  0  0  0
   19.9347   19.3920   55.6317 C   0  0  0  0  0  0  0  0  0  0  0  0
   19.4486   19.6665   54.4086 C   0  0  0  0  0  0  0  0  0  0  0  0
  1  2  1  0
  3  2  1  6
  3  4  1  0
  1  5  1  0
  4  5  1  0
  4  6  1  0
  5  7  1  1
  6  8  1  0
  6  9  2  0
  9 10  1  0
 10 11  1  0
  3 12  1  0
 10 12  2  0
  7 13  1  0
 13 14  1  0
 14 15  1  0
  4 16  1  1
 11 17  1  0
 17 18  1  0
 17 19  2  0
 15 20  1  0
 20 21  1  0
M  END
$$$$
28
     RDKit          3D

 21 23  0  0  0  0  0  0  0  0999 V2000
   20.9852   21.4046   63.3158 N   0  0  0  0  0  0  0  0  0  0  0  0
   19.9507   21.7455   63.8993 C   0  0  0  0  0  0  0  0  0  0  0  0
   19.5076   21.0122   64.9664 N   0  0  0  0  0  0  0  0  0  0  0  0
   21.3857   22.0959   62.1519 C   0  0  1  0  0  0  0  0  0  0  0  0
   20.4872   23.1342   61.7816 C   0  0  2  0  0  0  0  0  0  0  0  0
   22.6403   21.8920   61.3492 N   0  0  0  0  0  0  0  0  0  0  0  0
   20.8190   23.8943   60.5278 C   0  0  2  0  0  0  0  0  0  0  0  0
   19.1600   22.9189   63.6068 N   0  0  0  0  0  0  0  0  0  0  0  0
   19.5152   23.7102   62.4396 C   0  0  1  0  0  0  0  0  0  0  0  0
   20.2976   25.1182   60.5707 N   0  0  0  0  0  0  0  0  0  0  0  0
   20.2725   23.2155   59.3104 N   0  0  0  0  0  0  0  0  0  0  0  0
   20.5301   21.9783   58.9216 C   0  0  1  0  0  0  0  0  0  0  0  0
   19.4499   24.9234   61.9288 N   0  0  0  0  0  0  0  0  0  0  0  0
   19.4641   21.1839   58.4130 C   0  0  0  0  0  0  0  0  0  0  0  0
   19.7828   20.6420   57.0025 C   0  0  1  0  0  0  0  0  0  0  0  0
   18.9187   23.7348   58.8102 C   0  0  0  0  0  0  0  0  0  0  0  0
   21.0821   19.9861   57.0390 C   0  0  2  0  0  0  0  0  0  0  0  0
   22.1501   20.8184   57.7542 C   0  0  0  0  0  0  0  0  0  0  0  0
   21.5927   21.5526   58.7301 N   0  0  0  0  0  0  0  0  0  0  0  0
   18.7513   19.7047   56.4807 C   0  0  0  0  0  0  0  0  0  0  0  0
   21.4752   19.2825   55.8756 C   0  0  0  0  0  0  0  0  0  0  0  0
  1  2  1  0
  2  3  1  0
  1  4  1  0
  5  4  1  1
  4  6  1  1
  5  7  1  0
  2  8  1  0
  5  9  1  0
  9  8  1  1
  7 10  1  0
  7 11  1  6
 12 11  1  6
  9 13  1  0
 10 13  1  0
 12 14  1  0
 14 15  1  0
 11 16  1  0
 15 17  1  0
 17 18  1  0
 12 19  1  0
 18 19  1  0
 15 20  1  1
 17 21  1  6
M  END
$$$$
29
     RDKit          3D

 22 24  0  0  0  0  0  0  0  0999 V2000
   22.7259   22.3005   60.7365 N   0  0  0  0  0  0  0  0  0  0  0  0
   22.1301   22.2518   61.8823 C   0  0  0  0  0  0  0  0  0  0  0  0
   20.7665   23.0021   61.7167 C   0  0  2  0  0  0  0  0  0  0  0  0
   19.8650   22.9309   62.5787 O   0  0  0  0  0  0  0  0  0  0  0  0
   20.1103   22.8409   63.9484 C   0  0  0  0  0  0  0  0  0  0  0  0
   20.5160   22.5210   60.2749 C   0  0  2  0  0  0  0  0  0  0  0  0
   21.8315   22.0679   59.6481 C   0  0  2  0  0  0  0  0  0  0  0  0
   19.8219   23.3721   59.3257 C   0  0  2  0  0  0  0  0  0  0  0  0
   21.9970   21.4036   58.5141 N   0  0  0  0  0  0  0  0  0  0  0  0
   19.2799   21.6846   64.5224 C   0  0  0  0  0  0  0  0  0  0  0  0
   19.0695   21.6058   65.7000 O   0  0  0  0  0  0  0  0  0  0  0  0
   20.9408   21.6329   57.5731 C   0  0  0  0  0  0  0  0  0  0  0  0
   19.8035   22.6061   57.9568 C   0  0  0  0  0  0  0  0  0  0  0  0
   20.6038   24.5837   59.1987 O   0  0  0  0  0  0  0  0  0  0  0  0
   19.8113   25.8127   59.2990 C   0  0  0  0  0  0  0  0  0  0  0  0
   20.9347   20.9646   56.3503 C   0  0  1  0  0  0  0  0  0  0  0  0
   19.9867   20.0479   55.9297 C   0  0  0  0  0  0  0  0  0  0  0  0
   21.8771   21.2906   55.3868 C   0  0  0  0  0  0  0  0  0  0  0  0
   21.6933   20.7743   54.0748 C   0  0  0  0  0  0  0  0  0  0  0  0
   19.8682   19.5034   54.7300 C   0  0  1  0  0  0  0  0  0  0  0  0
   18.8496   18.6018   54.3735 O   0  0  0  0  0  0  0  0  0  0  0  0
   20.7556   19.8929   53.7654 C   0  0  0  0  0  0  0  0  0  0  0  0
  1  2  1  0
  2  3  1  0
  3  4  1  1
  4  5  1  0
  6  3  1  1
  7  1  1  1
  6  7  1  0
  6  8  1  0
  7  9  1  0
  5 10  1  0
 10 11  1  0
  9 12  1  0
  8 13  1  0
 12 13  1  0
  8 14  1  6
 14 15  1  0
 16 12  1  6
 16 17  1  0
 16 18  1  0
 18 19  1  0
 17 20  1  0
 20 21  1  6
 19 22  1  0
 20 22  1  0
M  END
$$$$
3
     RDKit          3D

  9  9  0  0  0  0  0  0  0  0999 V2000
   22.3698   20.8899   55.0905 C   0  0  0  0  0  0  0  0  0  0  0  0
   21.5573   20.1117   55.9190 C   0  0  0  0  0  0  0  0  0  0  0  0
   21.7498   21.1126   53.8276 C   0  0  0  0  0  0  0  0  0  0  0  0
   20.2958   20.9566   53.7406 C   0  0  0  0  0  0  0  0  0  0  0  0
   20.2460   19.8108   55.8175 C   0  0  0  0  0  0  0  0  0  0  0  0
   19.6674   20.1727   54.8152 C   0  0  0  0  0  0  0  0  0  0  0  0
   18.2513   19.7966   54.4178 C   0  0  0  0  0  0  0  0  0  0  0  0
   17.5267   19.3569   55.4596 N   0  0  0  0  0  0  0  0  0  0  0  0
   17.7661   19.5707   53.3154 N   0  0  0  0  0  0  0  0  0  0  0  0
  1  2  1  0
  1  3  1  0
  3  4  1  0
  2  5  1  0
  4  6  1  0
  5  6  1  0
  6  7  1  0
  7  8  1  0
  7  9  2  0
M  END
$$$$
30
     RDKit          3D

 22 23  0  0  0  0  0  0  0  0999 V2000
   22.7288   21.9193   61.8949 N   0  0  0  0  0  0  0  0  0  0  0  0
   21.5630   22.4329   61.7486 C   0  0  2  0  0  0  0  0  0  0  0  0
   21.0222   22.6287   60.4559 C   0  0  1  0  0  0  0  0  0  0  0  0
   21.3652   21.9110   59.4523 N   0  0  0  0  0  0  0  0  0  0  0  0
   20.6904   21.2435   58.5374 C   0  0  0  0  0  0  0  0  0  0  0  0
   19.9886   23.5790   60.1792 N   0  0  0  0  0  0  0  0  0  0  0  0
   21.0372   20.4206   57.5220 C   0  0  0  0  0  0  0  0  0  0  0  0
   20.8957   23.1510   62.8191 N   0  0  0  0  0  0  0  0  0  0  0  0
   20.0983   19.9076   56.5736 C   0  0  2  0  0  0  0  0  0  0  0  0
   19.9253   24.0461   62.5504 C   0  0  2  0  0  0  0  0  0  0  0  0
   18.8352   19.9339   56.8754 C   0  0  0  0  0  0  0  0  0  0  0  0
   20.8478   19.3312   55.3658 C   0  0  0  0  0  0  0  0  0  0  0  0
   19.6614   24.2963   61.2193 N   0  0  0  0  0  0  0  0  0  0  0  0
   19.1722   21.3566   58.5850 C   0  0  0  0  0  0  0  0  0  0  0  0
   18.3645   20.7393   57.7873 N   0  0  0  0  0  0  0  0  0  0  0  0
   19.4307   24.7593   63.5998 N   0  0  0  0  0  0  0  0  0  0  0  0
   19.7280   26.1106   63.7353 C   0  0  0  0  0  0  0  0  0  0  0  0
   20.9548   26.3112   64.4445 C   0  0  0  0  0  0  0  0  0  0  0  0
   21.4450   25.4450   65.2106 C   0  0  0  0  0  0  0  0  0  0  0  0
   22.3328   26.0374   66.4363 C   0  0  0  0  0  0  0  0  0  0  0  0
   22.9035   25.2065   67.3147 C   0  0  0  0  0  0  0  0  0  0  0  0
   21.7314   26.9911   67.2904 C   0  0  0  0  0  0  0  0  0  0  0  0
  2  1  1  6
  2  3  1  0
  3  4  1  1
  4  5  1  0
  3  6  1  0
  5  7  1  0
  2  8  1  0
  7  9  1  0
  8 10  1  0
  9 11  1  0
  9 12  1  1
  6 13  1  0
 10 13  1  0
  5 14  1  0
 11 15  1  0
 14 15  1  0
 10 16  1  1
 16 17  1  0
 17 18  1  0
 18 19  1  0
 19 20  1  0
 20 21  1  0
 20 22  1  0
M  END
$$$$
31
     RDKit          3D

 22 24  0  0  0  0  0  0  0  0999 V2000
   22.7754   22.2595   60.9306 N   0  0  0  0  0  0  0  0  0  0  0  0
   22.1136   22.1943   62.1222 C   0  0  0  0  0  0  0  0  0  0  0  0
   21.8103   22.0933   59.8647 C   0  0  0  0  0  0  0  0  0  0  0  0
   20.6761   21.9638   61.9261 C   0  0  2  0  0  0  0  0  0  0  0  0
   20.5047   22.1944   60.4889 C   0  0  1  0  0  0  0  0  0  0  0  0
   19.8373   22.8504   62.7500 C   0  0  1  0  0  0  0  0  0  0  0  0
   19.2911   22.2904   63.8711 C   0  0  0  0  0  0  0  0  0  0  0  0
   18.5021   22.9795   64.6672 C   0  0  0  0  0  0  0  0  0  0  0  0
   18.0978   22.4553   65.9968 C   0  0  0  0  0  0  0  0  0  0  0  0
   18.3688   21.0812   66.2113 C   0  0  0  0  0  0  0  0  0  0  0  0
   19.6826   24.1158   62.4569 O   0  0  0  0  0  0  0  0  0  0  0  0
   20.0520   23.5433   60.0708 N   0  0  0  0  0  0  0  0  0  0  0  0
   19.7046   20.9350   64.2706 C   0  0  0  0  0  0  0  0  0  0  0  0
   19.2338   20.4129   65.5316 C   0  0  0  0  0  0  0  0  0  0  0  0
   20.1970   24.5400   61.2381 C   0  0  1  0  0  0  0  0  0  0  0  0
   19.6088   25.9266   60.9354 C   0  0  0  0  0  0  0  0  0  0  0  0
   20.1505   23.9471   58.7704 C   0  0  0  0  0  0  0  0  0  0  0  0
   19.8702   26.8430   61.9002 N   0  0  0  0  0  0  0  0  0  0  0  0
   18.9744   24.3068   58.2260 O   0  0  0  0  0  0  0  0  0  0  0  0
   21.1733   23.8284   57.9238 N   0  0  0  0  0  0  0  0  0  0  0  0
   18.8593   27.7838   62.0980 C   0  0  0  0  0  0  0  0  0  0  0  0
   21.0679   26.8603   62.5172 C   0  0  0  0  0  0  0  0  0  0  0  0
  1  2  1  0
  1  3  1  0
  4  2  1  1
  5  3  1  6
  4  5  1  0
  4  6  1  0
  6  7  1  1
  7  8  1  0
  8  9  1  0
  9 10  1  0
  6 11  1  0
  5 12  1  0
  7 13  1  0
 10 14  1  0
 13 14  1  0
 11 15  1  0
 12 15  1  0
 15 16  1  6
 12 17  1  0
 16 18  1  0
 17 19  2  0
 17 20  1  0
 18 21  1  0
 18 22  1  0
M  END
$$$$
32
     RDKit          3D

 22 24  0  0  0  0  0  0  0  0999 V2000
   22.7787   22.2302   60.9913 N   0  0  0  0  0  0  0  0  0  0  0  0
   22.0825   22.1731   62.1445 C   0  0  0  0  0  0  0  0  0  0  0  0
   21.9881   21.9603   59.8063 C   0  0  2  0  0  0  0  0  0  0  0  0
   20.7821   22.9357   59.8278 C   0  0  1  0  0  0  0  0  0  0  0  0
   21.9498   20.9071   58.9907 N   0  0  0  0  0  0  0  0  0  0  0  0
   21.0473   20.5315   58.1357 C   0  0  1  0  0  0  0  0  0  0  0  0
   19.8859   21.4453   57.9614 C   0  0  1  0  0  0  0  0  0  0  0  0
   20.9964   19.4973   57.3087 N   0  0  0  0  0  0  0  0  0  0  0  0
   19.7609   22.5768   58.8412 C   0  0  2  0  0  0  0  0  0  0  0  0
   20.6571   19.2995   56.2341 C   0  0  0  0  0  0  0  0  0  0  0  0
   19.1175   21.0738   56.8282 C   0  0  0  0  0  0  0  0  0  0  0  0
   18.6701   23.3967   58.7110 O   0  0  0  0  0  0  0  0  0  0  0  0
   20.0721   23.1886   61.0540 C   0  0  0  0  0  0  0  0  0  0  0  0
   21.0199   23.2417   62.2111 C   0  0  1  0  0  0  0  0  0  0  0  0
   19.3427   20.0056   56.0568 C   0  0  1  0  0  0  0  0  0  0  0  0
   19.1488   24.7492   58.7881 C   0  0  0  0  0  0  0  0  0  0  0  0
   18.5314   19.7148   54.8140 C   0  0  0  0  0  0  0  0  0  0  0  0
   20.2643   23.2939   63.4741 C   0  0  0  0  0  0  0  0  0  0  0  0
   20.4895   24.4332   64.2442 N   0  0  0  0  0  0  0  0  0  0  0  0
   20.2626   22.2149   64.1701 O   0  0  0  0  0  0  0  0  0  0  0  0
   21.2556   25.4971   63.9820 C   0  0  0  0  0  0  0  0  0  0  0  0
   21.1812   26.6241   64.8358 C   0  0  0  0  0  0  0  0  0  0  0  0
  1  2  1  0
  3  1  1  1
  3  4  1  0
  3  5  1  0
  6  5  1  6
  6  7  1  0
  6  8  1  0
  4  9  1  0
  7  9  1  0
  8 10  1  0
  7 11  1  6
  9 12  1  6
  4 13  1  1
  2 14  1  0
 13 14  1  0
 10 15  1  0
 11 15  1  0
 12 16  1  0
 15 17  1  6
 14 18  1  1
 18 19  1  0
 18 20  2  0
 19 21  1  0
 21 22  1  0
M  END
$$$$
33
     RDKit          3D

 22 24  0  0  0  0  0  0  0  0999 V2000
   21.0347   27.9269   54.5582 O   0  0  0  0  0  0  0  0  0  0  0  0
   20.4662   26.8777   55.0560 C   0  0  1  0  0  0  0  0  0  0  0  0
   19.8977   26.7767   56.1838 C   0  0  0  0  0  0  0  0  0  0  0  0
   20.4106   25.7552   54.0986 C   0  0  0  0  0  0  0  0  0  0  0  0
   19.9152   24.5494   54.6359 C   0  0  0  0  0  0  0  0  0  0  0  0
   19.4409   25.5728   56.7587 C   0  0  1  0  0  0  0  0  0  0  0  0
   19.5864   24.3908   55.9492 C   0  0  0  0  0  0  0  0  0  0  0  0
   18.8530   25.4475   58.2255 C   0  0  0  0  0  0  0  0  0  0  0  0
   19.9718   25.4644   59.2147 C   0  0  0  0  0  0  0  0  0  0  0  0
   19.7861   26.2245   60.2591 N   0  0  0  0  0  0  0  0  0  0  0  0
   20.8345   24.4886   59.2766 N   0  0  0  0  0  0  0  0  0  0  0  0
   21.0974   23.5566   60.2928 C   0  0  1  0  0  0  0  0  0  0  0  0
   19.4119   27.5383   60.1231 C   0  0  0  0  0  0  0  0  0  0  0  0
   19.1434   28.2279   61.3676 C   0  0  0  0  0  0  0  0  0  0  0  0
   20.4518   23.4788   61.4060 O   0  0  0  0  0  0  0  0  0  0  0  0
   20.9153   23.0106   62.5714 C   0  0  0  0  0  0  0  0  0  0  0  0
   18.9112   27.4279   62.5248 C   0  0  0  0  0  0  0  0  0  0  0  0
   21.9705   22.3492   60.0030 C   0  0  0  0  0  0  0  0  0  0  0  0
   19.4787   26.1980   62.6724 C   0  0  0  0  0  0  0  0  0  0  0  0
   19.6795   25.4395   61.5315 C   0  0  0  0  0  0  0  0  0  0  0  0
   21.7060   21.7892   62.3735 C   0  0  0  0  0  0  0  0  0  0  0  0
   22.5309   21.9012   61.2342 N   0  0  0  0  0  0  0  0  0  0  0  0
  2  1  1  6
  2  3  1  0
  2  4  1  0
  4  5  1  0
  3  6  1  0
  5  7  1  0
  6  7  1  0
  6  8  1  1
  8  9  1  0
  9 10  1  0
  9 11  2  3
 11 12  1  0
 10 13  1  0
 13 14  1  0
 12 15  1  0
 15 16  1  0
 14 17  1  0
 12 18  1  6
 17 19  1  0
 10 20  1  0
 19 20  1  0
 16 21  1  0
 18 22  1  0
 21 22  1  0
M  END
$$$$
34
     RDKit          3D

 22 24  0  0  0  0  0  0  0  0999 V2000
   22.6125   21.9801   61.6250 N   0  0  0  0  0  0  0  0  0  0  0  0
   21.6773   22.1523   62.5264 C   0  0  0  0  0  0  0  0  0  0  0  0
   20.5687   22.9375   62.0174 C   0  0  2  0  0  0  0  0  0  0  0  0
   22.1734   22.1578   60.3222 C   0  0  0  0  0  0  0  0  0  0  0  0
   20.8429   22.9614   60.5146 C   0  0  1  0  0  0  0  0  0  0  0  0
   19.8366   22.4807   59.5567 C   0  0  0  0  0  0  0  0  0  0  0  0
   20.1063   22.7421   58.2456 N   0  0  0  0  0  0  0  0  0  0  0  0
   19.5685   23.6459   62.4976 O   0  0  0  0  0  0  0  0  0  0  0  0
   20.0621   24.9184   63.0762 C   0  0  2  0  0  0  0  0  0  0  0  0
   19.4758   21.7420   57.2812 C   0  0  0  0  0  0  0  0  0  0  0  0
   20.2015   20.4828   57.1902 C   0  0  0  0  0  0  0  0  0  0  0  0
   19.8008   19.6788   56.0666 C   0  0  0  0  0  0  0  0  0  0  0  0
   19.5204   25.1118   64.1541 C   0  0  1  0  0  0  0  0  0  0  0  0
   18.7553   24.4061   64.8544 O   0  0  0  0  0  0  0  0  0  0  0  0
   20.0578   26.3345   64.8894 C   0  0  2  0  0  0  0  0  0  0  0  0
   19.6115   26.6309   66.2766 C   0  0  0  0  0  0  0  0  0  0  0  0
   18.9290   25.5400   66.8681 C   0  0  0  0  0  0  0  0  0  0  0  0
   18.5934   24.4905   66.1999 C   0  0  0  0  0  0  0  0  0  0  0  0
   20.8105   27.0464   64.0375 C   0  0  0  0  0  0  0  0  0  0  0  0
   19.1200   20.1265   55.0706 N   0  0  0  0  0  0  0  0  0  0  0  0
   20.8544   25.7198   62.3086 C   0  0  0  0  0  0  0  0  0  0  0  0
   21.2125   26.8244   62.8679 C   0  0  0  0  0  0  0  0  0  0  0  0
  1  2  1  0
  2  3  1  0
  1  4  1  0
  3  5  1  0
  4  5  1  0
  5  6  1  6
  6  7  1  0
  3  8  1  1
  9  8  1  6
  7 10  1  0
 10 11  1  0
 11 12  1  0
  9 13  1  0
 13 14  1  1
 13 15  1  0
 15 16  1  6
 16 17  1  0
 14 18  1  0
 17 18  1  0
 15 19  1  0
 12 20  1  0
  9 21  1  0
 19 22  1  0
 21 22  1  0
M  END
$$$$
35
     RDKit          3D

 22 24  0  0  0  0  0  0  0  0999 V2000
   21.1303   28.1412   54.2314 O   0  0  0  0  0  0  0  0  0  0  0  0
   20.5100   27.1699   54.8401 C   0  0  2  0  0  0  0  0  0  0  0  0
   19.7561   27.2943   55.9493 C   0  0  0  0  0  0  0  0  0  0  0  0
   19.3067   26.2469   56.7790 C   0  0  1  0  0  0  0  0  0  0  0  0
   20.9234   25.7779   54.6542 N   0  0  0  0  0  0  0  0  0  0  0  0
   19.8116   24.9581   56.4958 C   0  0  0  0  0  0  0  0  0  0  0  0
   18.5313   26.6561   58.0816 C   0  0  0  0  0  0  0  0  0  0  0  0
   19.3049   27.0754   59.1065 N   0  0  0  0  0  0  0  0  0  0  0  0
   19.4531   23.9059   57.4595 N   0  0  0  0  0  0  0  0  0  0  0  0
   20.5535   24.7256   55.4518 C   0  0  0  0  0  0  0  0  0  0  0  0
   20.3136   22.9708   57.8969 C   0  0  0  0  0  0  0  0  0  0  0  0
   18.6529   27.2767   60.3372 C   0  0  0  0  0  0  0  0  0  0  0  0
   20.0414   22.3269   59.2335 C   0  0  2  0  0  0  0  0  0  0  0  0
   19.4756   23.3205   59.9841 O   0  0  0  0  0  0  0  0  0  0  0  0
   21.1642   21.5453   59.8467 C   0  0  2  0  0  0  0  0  0  0  0  0
   21.6349   22.3297   61.0041 C   0  0  2  0  0  0  0  0  0  0  0  0
   22.3143   21.7246   62.0268 N   0  0  0  0  0  0  0  0  0  0  0  0
   20.5154   23.5825   61.0103 C   0  0  2  0  0  0  0  0  0  0  0  0
   20.4423   24.5816   61.8940 C   0  0  0  0  0  0  0  0  0  0  0  0
   22.1479   21.0237   59.4052 N   0  0  0  0  0  0  0  0  0  0  0  0
   19.3708   27.0730   61.4663 C   0  0  0  0  0  0  0  0  0  0  0  0
   19.9451   25.8368   61.3399 O   0  0  0  0  0  0  0  0  0  0  0  0
  2  1  1  1
  2  3  1  0
  4  3  1  1
  2  5  1  0
  4  6  1  0
  4  7  1  0
  7  8  1  0
  6  9  1  0
  5 10  1  0
  6 10  1  0
  9 11  1  0
  8 12  1  0
 13 11  1  6
 13 14  1  0
 13 15  1  0
 15 16  1  0
 16 17  1  1
 14 18  1  0
 16 18  1  0
 18 19  1  1
 15 20  1  6
 12 21  1  0
 19 22  1  0
 21 22  1  0
M  END
$$$$
36
     RDKit          3D

 22 24  0  0  0  0  0  0  0  0999 V2000
   22.7259   22.3005   60.7365 N   0  0  0  0  0  0  0  0  0  0  0  0
   22.1301   22.2518   61.8823 C   0  0  0  0  0  0  0  0  0  0  0  0
   20.7665   23.0021   61.7167 C   0  0  2  0  0  0  0  0  0  0  0  0
   19.8650   22.9309   62.5787 O   0  0  0  0  0  0  0  0  0  0  0  0
   20.1103   22.8409   63.9484 C   0  0  0  0  0  0  0  0  0  0  0  0
   20.5160   22.5210   60.2749 C   0  0  2  0  0  0  0  0  0  0  0  0
   21.8315   22.0679   59.6481 C   0  0  2  0  0  0  0  0  0  0  0  0
   19.8219   23.3721   59.3257 C   0  0  1  0  0  0  0  0  0  0  0  0
   21.9970   21.4036   58.5141 N   0  0  0  0  0  0  0  0  0  0  0  0
   19.2799   21.6846   64.5224 C   0  0  0  0  0  0  0  0  0  0  0  0
   19.0695   21.6058   65.7000 O   0  0  0  0  0  0  0  0  0  0  0  0
   20.9408   21.6329   57.5731 C   0  0  1  0  0  0  0  0  0  0  0  0
   20.8968   20.9572   56.4286 N   0  0  0  0  0  0  0  0  0  0  0  0
   19.8503   22.5740   57.9792 C   0  0  0  0  0  0  0  0  0  0  0  0
   19.1979   24.4364   59.3458 O   0  0  0  0  0  0  0  0  0  0  0  0
   22.0305   20.6667   55.7157 C   0  0  0  0  0  0  0  0  0  0  0  0
   19.7782   20.1644   55.9950 C   0  0  0  0  0  0  0  0  0  0  0  0
   20.0161   25.6062   59.6663 C   0  0  0  0  0  0  0  0  0  0  0  0
   18.6823   19.9959   56.6731 C   0  0  0  0  0  0  0  0  0  0  0  0
   17.5880   19.4126   56.0571 C   0  0  0  0  0  0  0  0  0  0  0  0
   18.0839   19.3851   54.7169 C   0  0  0  0  0  0  0  0  0  0  0  0
   19.4660   19.8367   54.7182 C   0  0  0  0  0  0  0  0  0  0  0  0
  1  2  1  0
  2  3  1  0
  3  4  1  1
  4  5  1  0
  6  3  1  1
  7  1  1  1
  6  7  1  0
  6  8  1  0
  7  9  1  0
  5 10  1  0
 10 11  1  0
  9 12  1  0
 12 13  1  1
  8 14  1  0
 12 14  1  0
  8 15  1  1
 13 16  1  0
 13 17  1  0
 15 18  1  0
 17 19  1  0
 19 20  1  0
 20 21  1  0
 17 22  1  0
 21 22  1  0
M  END
$$$$
37
     RDKit          3D

 22 24  0  0  0  0  0  0  0  0999 V2000
   22.7288   21.9193   61.8949 N   0  0  0  0  0  0  0  0  0  0  0  0
   21.5630   22.4329   61.7486 C   0  0  2  0  0  0  0  0  0  0  0  0
   21.0222   22.6287   60.4559 C   0  0  1  0  0  0  0  0  0  0  0  0
   21.3652   21.9110   59.4523 N   0  0  0  0  0  0  0  0  0  0  0  0
   20.6904   21.2435   58.5374 C   0  0  0  0  0  0  0  0  0  0  0  0
   19.9886   23.5790   60.1792 N   0  0  0  0  0  0  0  0  0  0  0  0
   21.0372   20.4206   57.5220 C   0  0  0  0  0  0  0  0  0  0  0  0
   20.8957   23.1510   62.8191 N   0  0  0  0  0  0  0  0  0  0  0  0
   20.0983   19.9076   56.5736 C   0  0  2  0  0  0  0  0  0  0  0  0
   19.9253   24.0461   62.5504 C   0  0  2  0  0  0  0  0  0  0  0  0
   18.8352   19.9339   56.8754 C   0  0  0  0  0  0  0  0  0  0  0  0
   20.8478   19.3312   55.3658 C   0  0  0  0  0  0  0  0  0  0  0  0
   19.6614   24.2963   61.2193 N   0  0  0  0  0  0  0  0  0  0  0  0
   19.1722   21.3566   58.5850 C   0  0  0  0  0  0  0  0  0  0  0  0
   18.3641   20.7145   57.8359 C   0  0  0  0  0  0  0  0  0  0  0  0
   19.4254   24.7585   63.5902 C   0  0  2  0  0  0  0  0  0  0  0  0
   18.7393   24.2964   64.5365 C   0  0  0  0  0  0  0  0  0  0  0  0
   19.3738   26.2325   63.3307 C   0  0  0  0  0  0  0  0  0  0  0  0
   18.2404   25.0575   65.6358 C   0  0  0  0  0  0  0  0  0  0  0  0
   18.4282   26.3660   65.4444 C   0  0  1  0  0  0  0  0  0  0  0  0
   18.0026   27.2623   66.6418 F   0  0  0  0  0  0  0  0  0  0  0  0
   19.0038   27.0311   64.4295 C   0  0  0  0  0  0  0  0  0  0  0  0
  2  1  1  6
  2  3  1  0
  3  4  1  1
  4  5  1  0
  3  6  1  0
  5  7  1  0
  2  8  1  0
  7  9  1  0
 10  8  1  6
  9 11  1  0
  9 12  1  1
  6 13  1  0
 10 13  1  0
  5 14  1  0
 11 15  1  0
 14 15  1  0
 10 16  1  0
 16 17  1  6
 16 18  1  0
 17 19  1  0
 19 20  1  0
 20 21  1  1
 18 22  1  0
 20 22  1  0
M  END
$$$$
38
     RDKit          3D

 23 26  0  0  0  0  0  0  0  0999 V2000
   20.9852   21.4046   63.3158 N   0  0  0  0  0  0  0  0  0  0  0  0
   19.9507   21.7455   63.8993 C   0  0  0  0  0  0  0  0  0  0  0  0
   19.5076   21.0122   64.9664 N   0  0  0  0  0  0  0  0  0  0  0  0
   21.3857   22.0959   62.1519 C   0  0  1  0  0  0  0  0  0  0  0  0
   20.4872   23.1342   61.7816 C   0  0  2  0  0  0  0  0  0  0  0  0
   22.6403   21.8920   61.3492 N   0  0  0  0  0  0  0  0  0  0  0  0
   20.8190   23.8943   60.5278 C   0  0  2  0  0  0  0  0  0  0  0  0
   19.1600   22.9189   63.6068 N   0  0  0  0  0  0  0  0  0  0  0  0
   19.5152   23.7102   62.4396 C   0  0  1  0  0  0  0  0  0  0  0  0
   20.2976   25.1182   60.5707 N   0  0  0  0  0  0  0  0  0  0  0  0
   20.2725   23.2155   59.3104 N   0  0  0  0  0  0  0  0  0  0  0  0
   20.5301   21.9783   58.9216 C   0  0  1  0  0  0  0  0  0  0  0  0
   19.4499   24.9234   61.9288 N   0  0  0  0  0  0  0  0  0  0  0  0
   19.4641   21.1839   58.4130 C   0  0  0  0  0  0  0  0  0  0  0  0
   19.7828   20.6420   57.0025 C   0  0  1  0  0  0  0  0  0  0  0  0
   18.9187   23.7348   58.8102 C   0  0  0  0  0  0  0  0  0  0  0  0
   21.0821   19.9861   57.0390 C   0  0  2  0  0  0  0  0  0  0  0  0
   22.1501   20.8184   57.7542 C   0  0  0  0  0  0  0  0  0  0  0  0
   21.5927   21.5526   58.7301 N   0  0  0  0  0  0  0  0  0  0  0  0
   18.7513   19.7047   56.4807 C   0  0  0  0  0  0  0  0  0  0  0  0
   21.3994   19.7145   55.5574 C   0  0  0  0  0  0  0  0  0  0  0  0
   18.9658   19.4407   55.0657 C   0  0  0  0  0  0  0  0  0  0  0  0
   20.3500   18.9220   54.8661 C   0  0  0  0  0  0  0  0  0  0  0  0
  1  2  1  0
  2  3  1  0
  1  4  1  0
  5  4  1  1
  4  6  1  1
  5  7  1  0
  2  8  1  0
  5  9  1  0
  9  8  1  1
  7 10  1  0
  7 11  1  6
 12 11  1  6
  9 13  1  0
 10 13  1  0
 12 14  1  0
 15 14  1  1
 11 16  1  0
 15 17  1  0
 17 18  1  6
 12 19  1  0
 18 19  1  0
 15 20  1  0
 17 21  1  0
 20 22  1  0
 21 23  1  0
 22 23  1  0
M  END
$$$$
39
     RDKit          3D

 23 25  0  0  0  0  0  0  0  0999 V2000
   22.7754   22.2595   60.9306 N   0  0  0  0  0  0  0  0  0  0  0  0
   22.1136   22.1943   62.1222 C   0  0  0  0  0  0  0  0  0  0  0  0
   21.8756   21.9244   59.8361 C   0  0  2  0  0  0  0  0  0  0  0  0
   20.7388   22.9248   59.8233 C   0  0  0  0  0  0  0  0  0  0  0  0
   21.1875   20.5903   59.8785 C   0  0  0  0  0  0  0  0  0  0  0  0
   20.5831   23.5849   60.9965 C   0  0  1  0  0  0  0  0  0  0  0  0
   20.6199   20.2595   58.5235 C   0  0  0  0  0  0  0  0  0  0  0  0
   19.4478   24.5057   61.0393 O   0  0  0  0  0  0  0  0  0  0  0  0
   21.0321   23.2310   62.2471 C   0  0  1  0  0  0  0  0  0  0  0  0
   19.8127   25.7017   61.6883 C   0  0  0  0  0  0  0  0  0  0  0  0
   21.3458   20.3428   57.3643 N   0  0  0  0  0  0  0  0  0  0  0  0
   19.3102   20.0763   58.4098 O   0  0  0  0  0  0  0  0  0  0  0  0
   20.8395   20.0755   56.0872 C   0  0  0  0  0  0  0  0  0  0  0  0
   19.9548   22.5619   62.9653 O   0  0  0  0  0  0  0  0  0  0  0  0
   20.3097   25.6284   62.9030 C   0  0  1  0  0  0  0  0  0  0  0  0
   19.6695   19.5881   55.8854 C   0  0  0  0  0  0  0  0  0  0  0  0
   19.0240   20.0094   54.7051 C   0  0  0  0  0  0  0  0  0  0  0  0
   21.3790   24.4457   63.0400 C   0  0  1  0  0  0  0  0  0  0  0  0
   21.6247   20.5536   54.9427 C   0  0  0  0  0  0  0  0  0  0  0  0
   19.7599   20.2681   53.5025 C   0  0  0  0  0  0  0  0  0  0  0  0
   21.5558   24.2020   64.4940 O   0  0  0  0  0  0  0  0  0  0  0  0
   21.0007   20.6659   53.6858 C   0  0  0  0  0  0  0  0  0  0  0  0
   20.8752   26.7706   63.5218 O   0  0  0  0  0  0  0  0  0  0  0  0
  1  2  1  0
  1  3  1  0
  3  4  1  0
  3  5  1  1
  6  4  1  6
  5  7  1  0
  6  8  1  0
  2  9  1  0
  6  9  1  0
  8 10  1  0
  7 11  1  0
  7 12  2  0
 11 13  1  0
  9 14  1  1
 10 15  1  0
 13 16  1  0
 16 17  1  0
  9 18  1  0
 15 18  1  0
 13 19  1  0
 17 20  1  0
 18 21  1  1
 19 22  1  0
 20 22  1  0
 15 23  1  6
M  END
$$$$
4
     RDKit          3D

  9 10  0  0  0  0  0  0  0  0999 V2000
   18.5662   19.5341   55.8840 C   0  0  0  0  0  0  0  0  0  0  0  0
   19.6036   19.8957   55.1518 C   0  0  0  0  0  0  0  0  0  0  0  0
   18.7860   19.5545   57.3113 C   0  0  0  0  0  0  0  0  0  0  0  0
   20.9246   20.1837   55.4956 C   0  0  0  0  0  0  0  0  0  0  0  0
   20.9930   20.1864   56.8772 C   0  0  1  0  0  0  0  0  0  0  0  0
   22.3402   20.5889   57.4790 N   0  0  0  0  0  0  0  0  0  0  0  0
   20.0721   19.9560   57.7781 C   0  0  1  0  0  0  0  0  0  0  0  0
   22.1388   20.8370   58.8413 C   0  0  0  0  0  0  0  0  0  0  0  0
   20.5034   20.3413   58.9968 S   0  0  0  0  0  0  0  0  0  0  0  0
  1  2  1  0
  1  3  1  0
  2  4  1  0
  5  4  1  6
  5  6  1  0
  7  3  1  6
  5  7  1  0
  6  8  1  0
  7  9  1  0
  8  9  1  0
M  END
$$$$
40
     RDKit          3D

 24 27  0  0  0  0  0  0  0  0999 V2000
   20.9852   21.4046   63.3158 N   0  0  0  0  0  0  0  0  0  0  0  0
   21.3578   22.1327   62.1720 C   0  0  2  0  0  0  0  0  0  0  0  0
   22.4435   22.6744   62.0163 N   0  0  0  0  0  0  0  0  0  0  0  0
   20.0729   21.8038   64.2863 C   0  0  1  0  0  0  0  0  0  0  0  0
   19.1938   22.7644   63.8876 N   0  0  0  0  0  0  0  0  0  0  0  0
   19.5163   20.9973   65.3158 C   0  0  0  0  0  0  0  0  0  0  0  0
   20.2962   22.9094   61.4770 C   0  0  2  0  0  0  0  0  0  0  0  0
   18.2304   23.2248   64.7964 C   0  0  0  0  0  0  0  0  0  0  0  0
   17.6504   24.4029   64.4679 O   0  0  0  0  0  0  0  0  0  0  0  0
   18.0409   22.6146   65.9353 N   0  0  0  0  0  0  0  0  0  0  0  0
   19.3920   23.3727   62.5363 C   0  0  0  0  0  0  0  0  0  0  0  0
   18.5300   21.4647   66.1119 C   0  0  0  0  0  0  0  0  0  0  0  0
   19.9534   22.8843   60.2345 C   0  0  2  0  0  0  0  0  0  0  0  0
   19.1654   23.8121   59.6973 N   0  0  0  0  0  0  0  0  0  0  0  0
   20.2376   21.7057   59.4362 N   0  0  0  0  0  0  0  0  0  0  0  0
   19.3993   24.0796   58.3931 C   0  0  0  0  0  0  0  0  0  0  0  0
   20.1612   21.8406   58.0306 C   0  0  1  0  0  0  0  0  0  0  0  0
   20.4403   20.7004   57.3076 C   0  0  2  0  0  0  0  0  0  0  0  0
   19.7190   23.0599   57.5756 C   0  0  0  0  0  0  0  0  0  0  0  0
   21.6521   20.6932   56.5835 N   0  0  0  0  0  0  0  0  0  0  0  0
   21.6423   20.5396   55.3033 C   0  0  0  0  0  0  0  0  0  0  0  0
   19.5825   19.7385   57.0700 C   0  0  0  0  0  0  0  0  0  0  0  0
   20.6073   19.7193   54.7340 C   0  0  0  0  0  0  0  0  0  0  0  0
   19.5932   19.2383   55.7016 C   0  0  0  0  0  0  0  0  0  0  0  0
  1  2  1  0
  2  3  1  1
  1  4  1  0
  4  5  1  0
  4  6  1  6
  2  7  1  0
  5  8  1  0
  8  9  2  0
  8 10  1  0
  5 11  1  0
  7 11  1  1
  6 12  1  0
 10 12  1  0
  7 13  1  0
 13 14  1  1
 13 15  1  0
 14 16  1  0
 15 17  1  0
 17 18  1  0
 16 19  1  0
 17 19  1  1
 18 20  1  0
 20 21  1  0
 18 22  1  6
 21 23  1  0
 22 24  1  0
 23 24  1  0
M  END
$$$$
41
     RDKit          3D

 24 26  0  0  0  0  0  0  0  0999 V2000
   22.7754   22.2595   60.9306 N   0  0  0  0  0  0  0  0  0  0  0  0
   22.1136   22.1943   62.1222 C   0  0  0  0  0  0  0  0  0  0  0  0
   21.8756   21.9244   59.8361 C   0  0  2  0  0  0  0  0  0  0  0  0
   20.7388   22.9248   59.8233 C   0  0  0  0  0  0  0  0  0  0  0  0
   21.1875   20.5903   59.8785 C   0  0  0  0  0  0  0  0  0  0  0  0
   20.5831   23.5849   60.9965 C   0  0  1  0  0  0  0  0  0  0  0  0
   20.6199   20.2595   58.5235 C   0  0  0  0  0  0  0  0  0  0  0  0
   19.4478   24.5057   61.0393 O   0  0  0  0  0  0  0  0  0  0  0  0
   21.0321   23.2310   62.2471 C   0  0  1  0  0  0  0  0  0  0  0  0
   19.8127   25.7017   61.6883 C   0  0  0  0  0  0  0  0  0  0  0  0
   21.3458   20.3428   57.3643 N   0  0  0  0  0  0  0  0  0  0  0  0
   19.3102   20.0763   58.4098 O   0  0  0  0  0  0  0  0  0  0  0  0
   20.8395   20.0755   56.0872 C   0  0  1  0  0  0  0  0  0  0  0  0
   19.9548   22.5619   62.9653 O   0  0  0  0  0  0  0  0  0  0  0  0
   20.3097   25.6284   62.9030 C   0  0  1  0  0  0  0  0  0  0  0  0
   19.6695   19.5881   55.8854 C   0  0  0  0  0  0  0  0  0  0  0  0
   19.0240   20.0094   54.7051 C   0  0  0  0  0  0  0  0  0  0  0  0
   21.3790   24.4457   63.0400 C   0  0  1  0  0  0  0  0  0  0  0  0
   21.6247   20.5536   54.9427 C   0  0  2  0  0  0  0  0  0  0  0  0
   19.7599   20.2681   53.5025 C   0  0  0  0  0  0  0  0  0  0  0  0
   21.5558   24.2020   64.4940 O   0  0  0  0  0  0  0  0  0  0  0  0
   22.9710   21.0065   55.0721 O   0  0  0  0  0  0  0  0  0  0  0  0
   21.0647   20.6768   53.7189 C   0  0  0  0  0  0  0  0  0  0  0  0
   20.3075   26.4157   63.8955 O   0  0  0  0  0  0  0  0  0  0  0  0
  1  2  1  0
  1  3  1  0
  3  4  1  0
  3  5  1  1
  6  4  1  6
  5  7  1  0
  6  8  1  0
  2  9  1  0
  6  9  1  0
  8 10  1  0
  7 11  1  0
  7 12  2  0
 13 11  1  1
  9 14  1  1
 10 15  1  0
 13 16  1  0
 16 17  1  0
  9 18  1  0
 15 18  1  0
 13 19  1  0
 17 20  1  0
 18 21  1  1
 19 22  1  1
 19 23  1  0
 20 23  1  0
 15 24  1  6
M  END
$$$$
42
     RDKit          3D

 24 27  0  0  0  0  0  0  0  0999 V2000
   20.9852   21.4046   63.3158 N   0  0  0  0  0  0  0  0  0  0  0  0
   21.3578   22.1327   62.1720 C   0  0  2  0  0  0  0  0  0  0  0  0
   22.4435   22.6744   62.0163 N   0  0  0  0  0  0  0  0  0  0  0  0
   20.0729   21.8038   64.2863 C   0  0  1  0  0  0  0  0  0  0  0  0
   19.1938   22.7644   63.8876 N   0  0  0  0  0  0  0  0  0  0  0  0
   19.5163   20.9973   65.3158 C   0  0  0  0  0  0  0  0  0  0  0  0
   20.2962   22.9094   61.4770 C   0  0  2  0  0  0  0  0  0  0  0  0
   18.2304   23.2248   64.7964 C   0  0  0  0  0  0  0  0  0  0  0  0
   17.6504   24.4029   64.4679 O   0  0  0  0  0  0  0  0  0  0  0  0
   18.0409   22.6146   65.9353 N   0  0  0  0  0  0  0  0  0  0  0  0
   19.3920   23.3727   62.5363 C   0  0  0  0  0  0  0  0  0  0  0  0
   18.5300   21.4647   66.1119 C   0  0  0  0  0  0  0  0  0  0  0  0
   19.9534   22.8843   60.2345 C   0  0  2  0  0  0  0  0  0  0  0  0
   19.1654   23.8121   59.6973 N   0  0  0  0  0  0  0  0  0  0  0  0
   20.2376   21.7057   59.4362 N   0  0  0  0  0  0  0  0  0  0  0  0
   19.3993   24.0796   58.3931 C   0  0  0  0  0  0  0  0  0  0  0  0
   20.1612   21.8406   58.0306 C   0  0  0  0  0  0  0  0  0  0  0  0
   20.4403   20.7004   57.3076 C   0  0  0  0  0  0  0  0  0  0  0  0
   19.9532   19.5218   57.6752 C   0  0  0  0  0  0  0  0  0  0  0  0
   19.7741   23.0841   57.5137 C   0  0  0  0  0  0  0  0  0  0  0  0
   18.8371   19.3248   56.7420 C   0  0  0  0  0  0  0  0  0  0  0  0
   21.2938   20.9120   56.1234 C   0  0  0  0  0  0  0  0  0  0  0  0
   20.8661   20.0720   55.0228 C   0  0  0  0  0  0  0  0  0  0  0  0
   19.6111   19.1950   55.2994 C   0  0  0  0  0  0  0  0  0  0  0  0
  1  2  1  0
  2  3  1  1
  1  4  1  0
  4  5  1  0
  4  6  1  6
  2  7  1  0
  5  8  1  0
  8  9  2  0
  8 10  1  0
  5 11  1  0
  7 11  1  1
  6 12  1  0
 10 12  1  0
  7 13  1  0
 13 14  1  1
 13 15  1  0
 14 16  1  0
 15 17  1  0
 17 18  1  0
 18 19  1  0
 16 20  1  0
 17 20  1  0
 19 21  1  0
 18 22  1  0
 22 23  1  0
 21 24  1  0
 23 24  1  0
M  END
$$$$
43
     RDKit          3D

 24 26  0  0  0  0  0  0  0  0999 V2000
   22.7330   22.3762   61.1096 N   0  0  0  0  0  0  0  0  0  0  0  0
   21.9740   22.2828   62.2696 C   0  0  0  0  0  0  0  0  0  0  0  0
   20.7426   23.1741   62.1313 C   0  0  2  0  0  0  0  0  0  0  0  0
   21.9278   22.5678   59.9872 C   0  0  2  0  0  0  0  0  0  0  0  0
   19.6343   22.9738   62.8798 O   0  0  0  0  0  0  0  0  0  0  0  0
   19.5204   22.5358   64.1299 C   0  0  0  0  0  0  0  0  0  0  0  0
   20.5833   23.0407   60.6591 C   0  0  2  0  0  0  0  0  0  0  0  0
   19.8991   23.4483   64.9839 O   0  0  0  0  0  0  0  0  0  0  0  0
   21.5596   21.2491   59.3072 C   0  0  0  0  0  0  0  0  0  0  0  0
   19.0641   21.3169   64.4580 C   0  0  0  0  0  0  0  0  0  0  0  0
   20.1509   24.3260   60.0534 N   0  0  0  0  0  0  0  0  0  0  0  0
   20.4293   21.0587   58.6338 N   0  0  0  0  0  0  0  0  0  0  0  0
   20.4796   20.8624   57.2052 C   0  0  2  0  0  0  0  0  0  0  0  0
   19.5546   20.0824   56.6247 C   0  0  0  0  0  0  0  0  0  0  0  0
   19.5857   19.8409   55.2153 C   0  0  0  0  0  0  0  0  0  0  0  0
   20.7238   20.2271   54.5055 C   0  0  1  0  0  0  0  0  0  0  0  0
   20.7258   19.9924   53.0224 C   0  0  0  0  0  0  0  0  0  0  0  0
   18.9985   24.7146   59.6322 N   0  0  0  0  0  0  0  0  0  0  0  0
   19.0482   25.8184   59.0148 C   0  0  0  0  0  0  0  0  0  0  0  0
   21.4508   21.3643   56.3791 N   0  0  0  0  0  0  0  0  0  0  0  0
   21.4943   21.2529   54.9929 C   0  0  0  0  0  0  0  0  0  0  0  0
   18.0898   26.3383   58.1263 O   0  0  0  0  0  0  0  0  0  0  0  0
   21.0293   25.3440   59.7566 C   0  0  0  0  0  0  0  0  0  0  0  0
   20.2639   26.4351   59.1635 N   0  0  0  0  0  0  0  0  0  0  0  0
  1  2  1  0
  2  3  1  0
  1  4  1  0
  3  5  1  1
  5  6  1  0
  3  7  1  0
  4  7  1  0
  6  8  2  0
  4  9  1  1
  6 10  1  0
  7 11  1  6
  9 12  1  0
 13 12  1  1
 13 14  1  0
 14 15  1  0
 15 16  1  0
 16 17  1  6
 11 18  1  0
 18 19  1  0
 13 20  1  0
 16 21  1  0
 20 21  1  0
 19 22  2  0
 11 23  1  0
 19 24  1  0
 23 24  1  0
M  END
$$$$
44
     RDKit          3D

 24 26  0  0  0  0  0  0  0  0999 V2000
   21.0347   27.9269   54.5582 O   0  0  0  0  0  0  0  0  0  0  0  0
   20.4662   26.8777   55.0560 C   0  0  1  0  0  0  0  0  0  0  0  0
   19.8977   26.7767   56.1838 C   0  0  0  0  0  0  0  0  0  0  0  0
   20.4106   25.7552   54.0986 C   0  0  0  0  0  0  0  0  0  0  0  0
   19.9152   24.5494   54.6359 C   0  0  0  0  0  0  0  0  0  0  0  0
   19.4409   25.5728   56.7587 C   0  0  1  0  0  0  0  0  0  0  0  0
   19.5864   24.3908   55.9492 C   0  0  0  0  0  0  0  0  0  0  0  0
   18.8530   25.4475   58.2255 C   0  0  0  0  0  0  0  0  0  0  0  0
   19.9718   25.4644   59.2147 C   0  0  0  0  0  0  0  0  0  0  0  0
   19.7861   26.2245   60.2591 N   0  0  0  0  0  0  0  0  0  0  0  0
   20.8345   24.4886   59.2766 N   0  0  0  0  0  0  0  0  0  0  0  0
   21.0974   23.5566   60.2928 C   0  0  1  0  0  0  0  0  0  0  0  0
   19.4119   27.5383   60.1231 C   0  0  0  0  0  0  0  0  0  0  0  0
   19.1434   28.2279   61.3676 C   0  0  0  0  0  0  0  0  0  0  0  0
   20.4518   23.4788   61.4060 O   0  0  0  0  0  0  0  0  0  0  0  0
   20.9153   23.0106   62.5714 C   0  0  0  0  0  0  0  0  0  0  0  0
   18.9112   27.4279   62.5248 C   0  0  0  0  0  0  0  0  0  0  0  0
   21.9705   22.3492   60.0030 C   0  0  2  0  0  0  0  0  0  0  0  0
   19.4787   26.1980   62.6724 C   0  0  0  0  0  0  0  0  0  0  0  0
   20.0344   25.5843   61.5610 C   0  0  0  0  0  0  0  0  0  0  0  0
   21.7312   21.8252   62.3789 C   0  0  0  0  0  0  0  0  0  0  0  0
   21.0569   21.1976   59.9050 C   0  0  0  0  0  0  0  0  0  0  0  0
   22.8107   22.0104   61.1507 N   0  0  0  0  0  0  0  0  0  0  0  0
   21.8343   20.0491   59.4993 O   0  0  0  0  0  0  0  0  0  0  0  0
  2  1  1  6
  2  3  1  0
  2  4  1  0
  4  5  1  0
  3  6  1  0
  5  7  1  0
  6  7  1  0
  6  8  1  1
  8  9  1  0
  9 10  1  0
  9 11  2  3
 11 12  1  0
 10 13  1  0
 13 14  1  0
 12 15  1  6
 15 16  1  0
 14 17  1  0
 12 18  1  0
 17 19  1  0
 10 20  1  0
 19 20  1  0
 16 21  1  0
 18 22  1  1
 18 23  1  0
 21 23  1  0
 22 24  1  0
M  END
$$$$
45
     RDKit          3D

 24 26  0  0  0  0  0  0  0  0999 V2000
   22.7754   22.2595   60.9306 N   0  0  0  0  0  0  0  0  0  0  0  0
   22.1136   22.1943   62.1222 C   0  0  0  0  0  0  0  0  0  0  0  0
   21.8756   21.9244   59.8361 C   0  0  2  0  0  0  0  0  0  0  0  0
   20.7388   22.9248   59.8233 C   0  0  0  0  0  0  0  0  0  0  0  0
   21.1875   20.5903   59.8785 C   0  0  0  0  0  0  0  0  0  0  0  0
   20.5831   23.5849   60.9965 C   0  0  1  0  0  0  0  0  0  0  0  0
   20.6199   20.2595   58.5235 C   0  0  0  0  0  0  0  0  0  0  0  0
   19.4478   24.5057   61.0393 O   0  0  0  0  0  0  0  0  0  0  0  0
   21.0321   23.2310   62.2471 C   0  0  1  0  0  0  0  0  0  0  0  0
   19.8127   25.7017   61.6883 C   0  0  0  0  0  0  0  0  0  0  0  0
   21.3458   20.3428   57.3643 N   0  0  0  0  0  0  0  0  0  0  0  0
   19.3102   20.0763   58.4098 O   0  0  0  0  0  0  0  0  0  0  0  0
   20.8395   20.0755   56.0872 C   0  0  0  0  0  0  0  0  0  0  0  0
   19.9548   22.5619   62.9653 O   0  0  0  0  0  0  0  0  0  0  0  0
   20.3097   25.6284   62.9030 C   0  0  1  0  0  0  0  0  0  0  0  0
   19.6695   19.5881   55.8854 C   0  0  0  0  0  0  0  0  0  0  0  0
   19.0240   20.0094   54.7051 C   0  0  0  0  0  0  0  0  0  0  0  0
   21.3790   24.4457   63.0400 C   0  0  0  0  0  0  0  0  0  0  0  0
   19.8355   20.5010   53.6350 C   0  0  0  0  0  0  0  0  0  0  0  0
   19.2669   20.6580   52.2654 C   0  0  0  0  0  0  0  0  0  0  0  0
   22.2323   24.4207   63.9426 O   0  0  0  0  0  0  0  0  0  0  0  0
   20.8701   26.7983   63.4862 O   0  0  0  0  0  0  0  0  0  0  0  0
   21.1512   20.7916   53.8783 C   0  0  0  0  0  0  0  0  0  0  0  0
   21.6689   20.7363   55.0775 C   0  0  0  0  0  0  0  0  0  0  0  0
  1  2  1  0
  1  3  1  0
  3  4  1  0
  3  5  1  1
  6  4  1  6
  5  7  1  0
  6  8  1  0
  2  9  1  0
  6  9  1  0
  8 10  1  0
  7 11  1  0
  7 12  2  0
 11 13  1  0
  9 14  1  1
 10 15  1  0
 13 16  1  0
 16 17  1  0
  9 18  1  0
 15 18  1  0
 17 19  1  0
 19 20  1  0
 18 21  2  0
 15 22  1  6
 19 23  1  0
 13 24  1  0
 23 24  1  0
M  END
$$$$
46
     RDKit          3D

 25 27  0  0  0  0  0  0  0  0999 V2000
   22.7259   22.3005   60.7365 N   0  0  0  0  0  0  0  0  0  0  0  0
   22.1301   22.2518   61.8823 C   0  0  0  0  0  0  0  0  0  0  0  0
   21.9282   21.7372   59.6391 C   0  0  0  0  0  0  0  0  0  0  0  0
   21.4552   20.5691   59.6247 N   0  0  0  0  0  0  0  0  0  0  0  0
   21.9316   23.5735   62.4758 C   0  0  0  0  0  0  0  0  0  0  0  0
   20.5944   24.2186   62.0495 C   0  0  0  0  0  0  0  0  0  0  0  0
   20.9758   19.9301   58.5457 C   0  0  0  0  0  0  0  0  0  0  0  0
   20.4006   20.6175   57.5970 C   0  0  0  0  0  0  0  0  0  0  0  0
   20.1420   19.9870   56.2062 C   0  0  0  0  0  0  0  0  0  0  0  0
   21.1650   20.1492   55.2628 C   0  0  0  0  0  0  0  0  0  0  0  0
   20.4161   25.5438   62.5734 N   0  0  0  0  0  0  0  0  0  0  0  0
   19.8087   23.6441   61.3693 O   0  0  0  0  0  0  0  0  0  0  0  0
   20.5149   25.9986   63.5837 C   0  0  2  0  0  0  0  0  0  0  0  0
   18.9796   19.2736   56.0185 C   0  0  0  0  0  0  0  0  0  0  0  0
   21.3582   22.7237   58.7624 C   0  0  0  0  0  0  0  0  0  0  0  0
   18.6673   18.8774   54.7184 C   0  0  0  0  0  0  0  0  0  0  0  0
   19.9792   22.0198   57.8292 C   0  0  0  0  0  0  0  0  0  0  0  0
   21.2351   25.4288   64.7448 C   0  0  0  0  0  0  0  0  0  0  0  0
   19.7012   27.1688   63.9901 C   0  0  0  0  0  0  0  0  0  0  0  0
   19.0216   27.8031   62.9356 C   0  0  0  0  0  0  0  0  0  0  0  0
   20.8153   19.9026   53.9756 C   0  0  0  0  0  0  0  0  0  0  0  0
   19.6182   19.1159   53.6774 C   0  0  0  0  0  0  0  0  0  0  0  0
   19.6281   27.6165   65.2827 C   0  0  0  0  0  0  0  0  0  0  0  0
   20.3834   26.9091   66.2626 C   0  0  0  0  0  0  0  0  0  0  0  0
   21.1719   25.9243   65.9056 C   0  0  0  0  0  0  0  0  0  0  0  0
  1  2  1  0
  1  3  1  0
  3  4  2  0
  2  5  1  0
  5  6  1  0
  4  7  1  0
  7  8  1  0
  8  9  1  0
  9 10  1  0
  6 11  1  0
  6 12  2  0
 13 11  1  1
  9 14  1  0
  3 15  1  0
 14 16  1  0
  8 17  1  0
 15 17  1  0
 13 18  1  0
 13 19  1  0
 19 20  1  0
 10 21  1  0
 16 22  1  0
 21 22  1  0
 19 23  1  0
 23 24  1  0
 18 25  1  0
 24 25  1  0
M  END
$$$$
47
     RDKit          3D

 25 27  0  0  0  0  0  0  0  0999 V2000
   22.7259   22.3005   60.7365 N   0  0  0  0  0  0  0  0  0  0  0  0
   22.1301   22.2518   61.8823 C   0  0  0  0  0  0  0  0  0  0  0  0
   21.9282   21.7372   59.6391 C   0  0  0  0  0  0  0  0  0  0  0  0
   21.4552   20.5691   59.6247 N   0  0  0  0  0  0  0  0  0  0  0  0
   21.9316   23.5735   62.4758 C   0  0  0  0  0  0  0  0  0  0  0  0
   20.5944   24.2186   62.0495 C   0  0  0  0  0  0  0  0  0  0  0  0
   20.9758   19.9301   58.5457 C   0  0  0  0  0  0  0  0  0  0  0  0
   20.4006   20.6175   57.5970 C   0  0  0  0  0  0  0  0  0  0  0  0
   20.1420   19.9870   56.2062 C   0  0  0  0  0  0  0  0  0  0  0  0
   21.1650   20.1492   55.2628 C   0  0  0  0  0  0  0  0  0  0  0  0
   20.4161   25.5438   62.5734 N   0  0  0  0  0  0  0  0  0  0  0  0
   19.8087   23.6441   61.3693 O   0  0  0  0  0  0  0  0  0  0  0  0
   20.5149   25.9986   63.5837 C   0  0  2  0  0  0  0  0  0  0  0  0
   18.9796   19.2736   56.0185 C   0  0  0  0  0  0  0  0  0  0  0  0
   21.3582   22.7237   58.7624 C   0  0  0  0  0  0  0  0  0  0  0  0
   18.6673   18.8774   54.7184 C   0  0  0  0  0  0  0  0  0  0  0  0
   19.9792   22.0198   57.8292 C   0  0  0  0  0  0  0  0  0  0  0  0
   21.2351   25.4288   64.7448 C   0  0  0  0  0  0  0  0  0  0  0  0
   19.7012   27.1688   63.9901 C   0  0  2  0  0  0  0  0  0  0  0  0
   19.0216   27.8031   62.9356 C   0  0  0  0  0  0  0  0  0  0  0  0
   20.8153   19.9026   53.9756 C   0  0  0  0  0  0  0  0  0  0  0  0
   19.6182   19.1159   53.6774 C   0  0  0  0  0  0  0  0  0  0  0  0
   19.9293   27.6934   65.2760 N   0  0  0  0  0  0  0  0  0  0  0  0
   20.7331   26.8966   66.0663 C   0  0  0  0  0  0  0  0  0  0  0  0
   21.2240   25.9491   65.9570 N   0  0  0  0  0  0  0  0  0  0  0  0
  1  2  1  0
  1  3  1  0
  3  4  2  0
  2  5  1  0
  5  6  1  0
  4  7  1  0
  7  8  1  0
  8  9  1  0
  9 10  1  0
  6 11  1  0
  6 12  2  0
 13 11  1  1
  9 14  1  0
  3 15  1  0
 14 16  1  0
  8 17  1  0
 15 17  1  0
 13 18  1  0
 13 19  1  0
 19 20  1  6
 10 21  1  0
 16 22  1  0
 21 22  1  0
 19 23  1  0
 23 24  1  0
 18 25  1  0
 24 25  1  0
M  END
$$$$
48
     RDKit          3D

 25 28  0  0  0  0  0  0  0  0999 V2000
   20.9852   21.4046   63.3158 N   0  0  0  0  0  0  0  0  0  0  0  0
   21.3578   22.1327   62.1720 C   0  0  2  0  0  0  0  0  0  0  0  0
   22.4435   22.6744   62.0163 N   0  0  0  0  0  0  0  0  0  0  0  0
   20.0729   21.8038   64.2863 C   0  0  1  0  0  0  0  0  0  0  0  0
   19.1938   22.7644   63.8876 N   0  0  0  0  0  0  0  0  0  0  0  0
   19.5163   20.9973   65.3158 C   0  0  0  0  0  0  0  0  0  0  0  0
   20.2962   22.9094   61.4770 C   0  0  2  0  0  0  0  0  0  0  0  0
   18.2304   23.2248   64.7964 C   0  0  0  0  0  0  0  0  0  0  0  0
   17.6504   24.4029   64.4679 O   0  0  0  0  0  0  0  0  0  0  0  0
   18.0409   22.6146   65.9353 N   0  0  0  0  0  0  0  0  0  0  0  0
   19.3920   23.3727   62.5363 C   0  0  0  0  0  0  0  0  0  0  0  0
   18.5300   21.4647   66.1119 C   0  0  0  0  0  0  0  0  0  0  0  0
   19.9534   22.8843   60.2345 C   0  0  2  0  0  0  0  0  0  0  0  0
   19.1654   23.8121   59.6973 N   0  0  0  0  0  0  0  0  0  0  0  0
   20.2376   21.7057   59.4362 N   0  0  0  0  0  0  0  0  0  0  0  0
   19.3993   24.0796   58.3931 C   0  0  0  0  0  0  0  0  0  0  0  0
   20.1612   21.8406   58.0306 C   0  0  1  0  0  0  0  0  0  0  0  0
   20.4403   20.7004   57.3076 C   0  0  2  0  0  0  0  0  0  0  0  0
   19.7190   23.0599   57.5756 C   0  0  0  0  0  0  0  0  0  0  0  0
   21.6521   20.6932   56.5835 N   0  0  0  0  0  0  0  0  0  0  0  0
   21.6423   20.5396   55.3033 C   0  0  0  0  0  0  0  0  0  0  0  0
   19.5825   19.7385   57.0700 C   0  0  1  0  0  0  0  0  0  0  0  0
   18.4888   19.5088   57.8803 F   0  0  0  0  0  0  0  0  0  0  0  0
   20.6207   19.6825   54.7546 C   0  0  0  0  0  0  0  0  0  0  0  0
   19.5343   19.3278   55.6389 C   0  0  0  0  0  0  0  0  0  0  0  0
  1  2  1  0
  2  3  1  1
  1  4  1  0
  4  5  1  0
  4  6  1  6
  2  7  1  0
  5  8  1  0
  8  9  2  0
  8 10  1  0
  5 11  1  0
  7 11  1  1
  6 12  1  0
 10 12  1  0
  7 13  1  0
 13 14  1  1
 13 15  1  0
 14 16  1  0
 15 17  1  0
 17 18  1  0
 16 19  1  0
 17 19  1  1
 18 20  1  6
 20 21  1  0
 18 22  1  0
 22 23  1  6
 21 24  1  0
 22 25  1  0
 24 25  1  0
M  END
$$$$
49
     RDKit          3D

 25 28  0  0  0  0  0  0  0  0999 V2000
   22.7330   22.3762   61.1096 N   0  0  0  0  0  0  0  0  0  0  0  0
   21.9740   22.2828   62.2696 C   0  0  0  0  0  0  0  0  0  0  0  0
   20.7426   23.1741   62.1313 C   0  0  1  0  0  0  0  0  0  0  0  0
   21.9278   22.5678   59.9872 C   0  0  0  0  0  0  0  0  0  0  0  0
   19.6343   22.9738   62.8798 O   0  0  0  0  0  0  0  0  0  0  0  0
   19.3504   23.4196   64.2494 C   0  0  0  0  0  0  0  0  0  0  0  0
   18.7332   22.5449   65.0237 C   0  0  0  0  0  0  0  0  0  0  0  0
   19.1740   21.1412   64.9130 C   0  0  0  0  0  0  0  0  0  0  0  0
   20.9694   21.5708   59.8627 C   0  0  1  0  0  0  0  0  0  0  0  0
   20.9980   24.5720   62.0841 C   0  0  0  0  0  0  0  0  0  0  0  0
   19.7608   24.7405   64.4433 C   0  0  1  0  0  0  0  0  0  0  0  0
   20.1253   22.5976   60.7783 C   0  0  0  0  0  0  0  0  0  0  0  0
   19.6013   25.3408   65.5858 C   0  0  0  0  0  0  0  0  0  0  0  0
   20.5389   25.3442   63.2784 C   0  0  1  0  0  0  0  0  0  0  0  0
   20.0943   26.6367   65.9096 C   0  0  0  0  0  0  0  0  0  0  0  0
   20.9965   26.6277   63.6790 C   0  0  0  0  0  0  0  0  0  0  0  0
   20.7833   27.3046   64.8478 C   0  0  0  0  0  0  0  0  0  0  0  0
   20.4510   21.3785   58.5529 C   0  0  0  0  0  0  0  0  0  0  0  0
   20.9377   20.2677   57.8405 C   0  0  0  0  0  0  0  0  0  0  0  0
   20.4573   19.9543   56.5280 C   0  0  0  0  0  0  0  0  0  0  0  0
   19.1461   19.6351   56.3250 C   0  0  0  0  0  0  0  0  0  0  0  0
   18.6905   19.5107   54.9686 C   0  0  0  0  0  0  0  0  0  0  0  0
   19.6056   19.6177   53.9330 C   0  0  0  0  0  0  0  0  0  0  0  0
   20.8068   20.0915   54.1857 C   0  0  0  0  0  0  0  0  0  0  0  0
   21.3213   20.2281   55.4673 C   0  0  0  0  0  0  0  0  0  0  0  0
  1  2  1  0
  3  2  1  1
  1  4  1  0
  3  5  1  0
  5  6  1  0
  6  7  1  0
  7  8  1  0
  4  9  1  0
  3 10  1  0
  6 11  1  0
  3 12  1  0
  9 12  1  0
 11 13  1  1
 14 10  1  1
 11 14  1  0
 13 15  1  0
 14 16  1  0
 15 17  1  0
 16 17  1  0
  9 18  1  6
 18 19  1  0
 19 20  1  0
 20 21  1  0
 21 22  1  0
 22 23  1  0
 23 24  1  0
 20 25  1  0
 24 25  1  0
M  END
$$$$
5
     RDKit          3D

 10 11  0  0  0  0  0  0  0  0999 V2000
   22.7951   21.9245   61.4192 N   0  0  0  0  0  0  0  0  0  0  0  0
   21.5157   22.2450   61.4972 C   0  0  0  0  0  0  0  0  0  0  0  0
   20.8164   22.4408   60.2522 C   0  0  2  0  0  0  0  0  0  0  0  0
   20.8769   22.3526   62.6609 N   0  0  0  0  0  0  0  0  0  0  0  0
   19.5895   22.7406   62.5072 C   0  0  0  0  0  0  0  0  0  0  0  0
   19.0651   23.0014   61.3670 N   0  0  0  0  0  0  0  0  0  0  0  0
   19.6445   22.8613   60.2510 C   0  0  2  0  0  0  0  0  0  0  0  0
   19.1988   23.0135   58.9492 N   0  0  0  0  0  0  0  0  0  0  0  0
   20.1454   22.5921   58.0935 C   0  0  0  0  0  0  0  0  0  0  0  0
   21.2185   22.1364   58.8875 N   0  0  0  0  0  0  0  0  0  0  0  0
  1  2  1  0
  2  3  1  0
  2  4  1  0
  4  5  1  0
  5  6  1  0
  3  7  1  0
  7  6  1  1
  7  8  1  0
  8  9  1  0
  3 10  1  1
  9 10  1  0
M  END
$$$$
50
     RDKit          3D

 25 28  0  0  0  0  0  0  0  0999 V2000
   22.7288   21.9193   61.8949 N   0  0  0  0  0  0  0  0  0  0  0  0
   21.9062   22.3403   61.0011 C   0  0  1  0  0  0  0  0  0  0  0  0
   21.6678   21.5785   59.9081 N   0  0  0  0  0  0  0  0  0  0  0  0
   20.6643   21.9393   58.9838 C   0  0  2  0  0  0  0  0  0  0  0  0
   20.5470   22.9899   61.2544 C   0  0  1  0  0  0  0  0  0  0  0  0
   20.4520   24.0816   62.0004 N   0  0  0  0  0  0  0  0  0  0  0  0
   20.0203   23.1077   59.8583 N   0  0  0  0  0  0  0  0  0  0  0  0
   19.9885   21.7013   58.0082 C   0  0  1  0  0  0  0  0  0  0  0  0
   19.0964   23.8583   59.2464 C   0  0  0  0  0  0  0  0  0  0  0  0
   20.7660   24.1420   63.2957 C   0  0  0  0  0  0  0  0  0  0  0  0
   19.0727   22.5285   57.5179 C   0  0  0  0  0  0  0  0  0  0  0  0
   18.6549   23.5356   58.1506 N   0  0  0  0  0  0  0  0  0  0  0  0
   20.3701   20.3885   57.2233 C   0  0  0  0  0  0  0  0  0  0  0  0
   21.2146   23.1533   63.9903 O   0  0  0  0  0  0  0  0  0  0  0  0
   21.5298   20.4791   56.5481 C   0  0  0  0  0  0  0  0  0  0  0  0
   20.5911   25.3360   64.1832 C   0  0  0  0  0  0  0  0  0  0  0  0
   21.7107   19.5822   55.4589 C   0  0  0  0  0  0  0  0  0  0  0  0
   20.1785   26.4715   63.5657 C   0  0  0  0  0  0  0  0  0  0  0  0
   21.5293   25.5311   65.2688 C   0  0  0  0  0  0  0  0  0  0  0  0
   21.1774   26.7662   65.9976 C   0  0  0  0  0  0  0  0  0  0  0  0
   20.0115   27.7367   64.3009 C   0  0  0  0  0  0  0  0  0  0  0  0
   20.6683   27.8289   65.4910 N   0  0  0  0  0  0  0  0  0  0  0  0
   20.6076   19.8449   54.6116 C   0  0  0  0  0  0  0  0  0  0  0  0
   19.1512   20.1975   56.3713 C   0  0  0  0  0  0  0  0  0  0  0  0
   19.3335   19.8439   54.9761 C   0  0  0  0  0  0  0  0  0  0  0  0
  2  1  1  1
  2  3  1  0
  4  3  1  1
  2  5  1  0
  5  6  1  6
  4  7  1  0
  5  7  1  0
  4  8  1  0
  7  9  1  0
  6 10  1  0
  8 11  1  0
  9 12  1  0
 11 12  1  0
  8 13  1  6
 10 14  2  0
 13 15  1  0
 10 16  1  0
 15 17  1  0
 16 18  1  0
 16 19  1  0
 19 20  1  0
 18 21  1  0
 20 22  1  0
 21 22  1  0
 17 23  1  0
 13 24  1  0
 23 25  1  0
 24 25  1  0
M  END
$$$$
51
     RDKit          3D

 25 27  0  0  0  0  0  0  0  0999 V2000
   22.7754   22.2595   60.9306 N   0  0  0  0  0  0  0  0  0  0  0  0
   22.1136   22.1943   62.1222 C   0  0  0  0  0  0  0  0  0  0  0  0
   21.8756   21.9244   59.8361 C   0  0  2  0  0  0  0  0  0  0  0  0
   20.7388   22.9248   59.8233 C   0  0  0  0  0  0  0  0  0  0  0  0
   21.1875   20.5903   59.8785 C   0  0  0  0  0  0  0  0  0  0  0  0
   20.5831   23.5849   60.9965 C   0  0  1  0  0  0  0  0  0  0  0  0
   20.6199   20.2595   58.5235 C   0  0  0  0  0  0  0  0  0  0  0  0
   19.4478   24.5057   61.0393 O   0  0  0  0  0  0  0  0  0  0  0  0
   21.0321   23.2310   62.2471 C   0  0  1  0  0  0  0  0  0  0  0  0
   19.8127   25.7017   61.6883 C   0  0  0  0  0  0  0  0  0  0  0  0
   21.3458   20.3428   57.3643 N   0  0  0  0  0  0  0  0  0  0  0  0
   19.3102   20.0763   58.4098 O   0  0  0  0  0  0  0  0  0  0  0  0
   20.8395   20.0755   56.0872 C   0  0  1  0  0  0  0  0  0  0  0  0
   19.9548   22.5619   62.9653 O   0  0  0  0  0  0  0  0  0  0  0  0
   20.3097   25.6284   62.9030 C   0  0  2  0  0  0  0  0  0  0  0  0
   19.6695   19.5881   55.8854 C   0  0  0  0  0  0  0  0  0  0  0  0
   19.0240   20.0094   54.7051 C   0  0  0  0  0  0  0  0  0  0  0  0
   19.8341   20.5098   53.6353 C   0  0  0  0  0  0  0  0  0  0  0  0
   21.6910   20.5957   55.0442 C   0  0  0  0  0  0  0  0  0  0  0  0
   22.9741   21.0826   55.1998 F   0  0  0  0  0  0  0  0  0  0  0  0
   21.1936   20.6764   53.7670 C   0  0  0  0  0  0  0  0  0  0  0  0
   20.3953   26.5945   63.7574 C   0  0  0  0  0  0  0  0  0  0  0  0
   21.0321   24.3617   63.1846 C   0  0  0  0  0  0  0  0  0  0  0  0
   19.5719   27.6665   63.6810 C   0  0  0  0  0  0  0  0  0  0  0  0
   21.3980   26.8345   64.8413 C   0  0  0  0  0  0  0  0  0  0  0  0
  1  2  1  0
  1  3  1  0
  3  4  1  0
  3  5  1  1
  6  4  1  6
  5  7  1  0
  6  8  1  0
  2  9  1  0
  6  9  1  0
  8 10  1  0
  7 11  1  0
  7 12  2  0
 13 11  1  1
  9 14  1  1
 10 15  1  0
 13 16  1  0
 16 17  1  0
 17 18  1  0
 13 19  1  0
 19 20  1  0
 18 21  1  0
 19 21  1  0
 15 22  1  6
  9 23  1  0
 15 23  1  0
 22 24  2  0
 22 25  1  0
M  END
$$$$
52
     RDKit          3D

 25 28  0  0  0  0  0  0  0  0999 V2000
   22.7288   21.9193   61.8949 N   0  0  0  0  0  0  0  0  0  0  0  0
   21.9062   22.3403   61.0011 C   0  0  1  0  0  0  0  0  0  0  0  0
   21.6678   21.5785   59.9081 N   0  0  0  0  0  0  0  0  0  0  0  0
   20.6643   21.9393   58.9838 C   0  0  2  0  0  0  0  0  0  0  0  0
   20.5470   22.9899   61.2544 C   0  0  1  0  0  0  0  0  0  0  0  0
   20.4520   24.0816   62.0004 N   0  0  0  0  0  0  0  0  0  0  0  0
   20.0203   23.1077   59.8583 N   0  0  0  0  0  0  0  0  0  0  0  0
   19.9885   21.7013   58.0082 C   0  0  1  0  0  0  0  0  0  0  0  0
   19.0964   23.8583   59.2464 C   0  0  0  0  0  0  0  0  0  0  0  0
   20.7660   24.1420   63.2957 C   0  0  0  0  0  0  0  0  0  0  0  0
   19.0727   22.5285   57.5179 C   0  0  0  0  0  0  0  0  0  0  0  0
   18.6549   23.5356   58.1506 N   0  0  0  0  0  0  0  0  0  0  0  0
   20.3701   20.3885   57.2233 C   0  0  0  0  0  0  0  0  0  0  0  0
   21.2146   23.1533   63.9903 O   0  0  0  0  0  0  0  0  0  0  0  0
   21.5298   20.4791   56.5481 C   0  0  0  0  0  0  0  0  0  0  0  0
   20.5911   25.3360   64.1832 C   0  0  0  0  0  0  0  0  0  0  0  0
   21.7107   19.5822   55.4589 C   0  0  0  0  0  0  0  0  0  0  0  0
   20.1785   26.4715   63.5657 C   0  0  0  0  0  0  0  0  0  0  0  0
   20.9082   25.3691   65.5407 C   0  0  0  0  0  0  0  0  0  0  0  0
   19.0376   20.0634   56.6165 C   0  0  0  0  0  0  0  0  0  0  0  0
   19.1598   18.9774   55.5930 C   0  0  0  0  0  0  0  0  0  0  0  0
   20.1582   27.6450   64.5704 C   0  0  0  0  0  0  0  0  0  0  0  0
   20.3748   19.4208   54.6822 C   0  0  0  0  0  0  0  0  0  0  0  0
   20.5630   27.5665   65.8537 C   0  0  0  0  0  0  0  0  0  0  0  0
   20.9737   26.3386   66.3255 C   0  0  0  0  0  0  0  0  0  0  0  0
  2  1  1  1
  2  3  1  0
  4  3  1  1
  2  5  1  0
  5  6  1  6
  4  7  1  0
  5  7  1  0
  4  8  1  0
  7  9  1  0
  6 10  1  0
  8 11  1  0
  9 12  1  0
 11 12  1  0
  8 13  1  6
 10 14  2  0
 13 15  1  0
 10 16  1  0
 15 17  1  0
 16 18  1  0
 16 19  1  0
 13 20  1  0
 20 21  1  0
 18 22  1  0
 17 23  1  0
 21 23  1  0
 22 24  1  0
 19 25  1  0
 24 25  1  0
M  END
$$$$
53
     RDKit          3D

 25 27  0  0  0  0  0  0  0  0999 V2000
   22.7754   22.2595   60.9306 N   0  0  0  0  0  0  0  0  0  0  0  0
   22.1136   22.1943   62.1222 C   0  0  0  0  0  0  0  0  0  0  0  0
   21.8756   21.9244   59.8361 C   0  0  2  0  0  0  0  0  0  0  0  0
   20.7388   22.9248   59.8233 C   0  0  0  0  0  0  0  0  0  0  0  0
   21.1875   20.5903   59.8785 C   0  0  0  0  0  0  0  0  0  0  0  0
   20.5831   23.5849   60.9965 C   0  0  1  0  0  0  0  0  0  0  0  0
   20.6199   20.2595   58.5235 C   0  0  0  0  0  0  0  0  0  0  0  0
   19.4478   24.5057   61.0393 O   0  0  0  0  0  0  0  0  0  0  0  0
   21.0321   23.2310   62.2471 C   0  0  1  0  0  0  0  0  0  0  0  0
   19.8127   25.7017   61.6883 C   0  0  1  0  0  0  0  0  0  0  0  0
   21.3458   20.3428   57.3643 N   0  0  0  0  0  0  0  0  0  0  0  0
   19.3102   20.0763   58.4098 O   0  0  0  0  0  0  0  0  0  0  0  0
   20.8395   20.0755   56.0872 C   0  0  1  0  0  0  0  0  0  0  0  0
   19.9548   22.5619   62.9653 O   0  0  0  0  0  0  0  0  0  0  0  0
   20.3097   25.6284   62.9030 C   0  0  2  0  0  0  0  0  0  0  0  0
   19.6695   19.5881   55.8854 C   0  0  0  0  0  0  0  0  0  0  0  0
   19.0240   20.0094   54.7051 C   0  0  0  0  0  0  0  0  0  0  0  0
   21.3790   24.4457   63.0400 C   0  0  1  0  0  0  0  0  0  0  0  0
   21.6247   20.5536   54.9427 C   0  0  2  0  0  0  0  0  0  0  0  0
   19.7599   20.2681   53.5025 C   0  0  0  0  0  0  0  0  0  0  0  0
   21.5558   24.2020   64.4940 O   0  0  0  0  0  0  0  0  0  0  0  0
   22.9710   21.0065   55.0721 O   0  0  0  0  0  0  0  0  0  0  0  0
   19.3222   25.3969   63.8720 O   0  0  0  0  0  0  0  0  0  0  0  0
   20.6751   26.6270   60.8441 O   0  0  0  0  0  0  0  0  0  0  0  0
   21.0583   20.8568   53.7259 C   0  0  0  0  0  0  0  0  0  0  0  0
  1  2  1  0
  1  3  1  0
  3  4  1  0
  3  5  1  1
  6  4  1  6
  5  7  1  0
  6  8  1  0
  2  9  1  0
  6  9  1  0
  8 10  1  0
  7 11  1  0
  7 12  2  0
 13 11  1  1
  9 14  1  1
 10 15  1  0
 13 16  1  0
 16 17  1  0
  9 18  1  0
 15 18  1  0
 13 19  1  0
 17 20  1  0
 18 21  1  1
 19 22  1  1
 15 23  1  1
 10 24  1  6
 19 25  1  0
 20 25  1  0
M  END
$$$$
54
     RDKit          3D

 26 28  0  0  0  0  0  0  0  0999 V2000
   22.7330   22.3762   61.1096 N   0  0  0  0  0  0  0  0  0  0  0  0
   21.9740   22.2828   62.2696 C   0  0  0  0  0  0  0  0  0  0  0  0
   20.7426   23.1741   62.1313 C   0  0  2  0  0  0  0  0  0  0  0  0
   21.9278   22.5678   59.9872 C   0  0  2  0  0  0  0  0  0  0  0  0
   19.6343   22.9738   62.8798 O   0  0  0  0  0  0  0  0  0  0  0  0
   19.5204   22.5358   64.1299 C   0  0  0  0  0  0  0  0  0  0  0  0
   20.5833   23.0407   60.6591 C   0  0  2  0  0  0  0  0  0  0  0  0
   19.8991   23.4483   64.9839 O   0  0  0  0  0  0  0  0  0  0  0  0
   21.5596   21.2491   59.3072 C   0  0  0  0  0  0  0  0  0  0  0  0
   19.0641   21.3169   64.4580 C   0  0  0  0  0  0  0  0  0  0  0  0
   20.1509   24.3260   60.0534 N   0  0  0  0  0  0  0  0  0  0  0  0
   20.4293   21.0587   58.6338 N   0  0  0  0  0  0  0  0  0  0  0  0
   20.4796   20.8624   57.2052 C   0  0  2  0  0  0  0  0  0  0  0  0
   19.5546   20.0824   56.6247 C   0  0  0  0  0  0  0  0  0  0  0  0
   19.5857   19.8409   55.2153 C   0  0  0  0  0  0  0  0  0  0  0  0
   20.7238   20.2271   54.5055 C   0  0  1  0  0  0  0  0  0  0  0  0
   20.7258   19.9924   53.0224 C   0  0  0  0  0  0  0  0  0  0  0  0
   21.4887   21.3838   56.4046 N   0  0  0  0  0  0  0  0  0  0  0  0
   21.4517   21.0954   55.0210 C   0  0  0  0  0  0  0  0  0  0  0  0
   20.8697   25.3837   60.2678 C   0  0  0  0  0  0  0  0  0  0  0  0
   19.4139   24.1931   58.8312 C   0  0  0  0  0  0  0  0  0  0  0  0
   18.9168   23.1458   58.3469 O   0  0  0  0  0  0  0  0  0  0  0  0
   18.9273   25.4652   58.2846 C   0  0  0  0  0  0  0  0  0  0  0  0
   20.2980   26.6062   59.6721 N   0  0  0  0  0  0  0  0  0  0  0  0
   19.3650   26.5926   58.8789 C   0  0  1  0  0  0  0  0  0  0  0  0
   18.9239   27.8656   58.2145 C   0  0  0  0  0  0  0  0  0  0  0  0
  1  2  1  0
  2  3  1  0
  1  4  1  0
  3  5  1  1
  5  6  1  0
  3  7  1  0
  4  7  1  0
  6  8  2  0
  4  9  1  1
  6 10  1  0
  7 11  1  6
  9 12  1  0
 13 12  1  1
 13 14  1  0
 14 15  1  0
 15 16  1  0
 16 17  1  6
 13 18  1  0
 16 19  1  0
 18 19  1  0
 11 20  1  0
 11 21  1  0
 21 22  2  0
 21 23  1  0
 20 24  1  0
 23 25  1  0
 24 25  1  0
 25 26  1  6
M  END
$$$$
55
     RDKit          3D

 26 29  0  0  0  0  0  0  0  0999 V2000
   22.7259   22.3005   60.7365 N   0  0  0  0  0  0  0  0  0  0  0  0
   22.1301   22.2518   61.8823 C   0  0  0  0  0  0  0  0  0  0  0  0
   21.9282   21.7372   59.6391 C   0  0  0  0  0  0  0  0  0  0  0  0
   21.4552   20.5691   59.6247 N   0  0  0  0  0  0  0  0  0  0  0  0
   21.9316   23.5735   62.4758 C   0  0  0  0  0  0  0  0  0  0  0  0
   20.5944   24.2186   62.0495 C   0  0  0  0  0  0  0  0  0  0  0  0
   20.9758   19.9301   58.5457 C   0  0  0  0  0  0  0  0  0  0  0  0
   20.4006   20.6175   57.5970 C   0  0  0  0  0  0  0  0  0  0  0  0
   20.1420   19.9870   56.2062 C   0  0  0  0  0  0  0  0  0  0  0  0
   21.1650   20.1492   55.2628 C   0  0  0  0  0  0  0  0  0  0  0  0
   20.4161   25.5438   62.5734 N   0  0  0  0  0  0  0  0  0  0  0  0
   19.8087   23.6441   61.3693 O   0  0  0  0  0  0  0  0  0  0  0  0
   20.5149   25.9986   63.5837 C   0  0  2  0  0  0  0  0  0  0  0  0
   18.9796   19.2736   56.0185 C   0  0  0  0  0  0  0  0  0  0  0  0
   21.3582   22.7237   58.7624 C   0  0  0  0  0  0  0  0  0  0  0  0
   18.6673   18.8774   54.7184 C   0  0  0  0  0  0  0  0  0  0  0  0
   19.9792   22.0198   57.8292 C   0  0  0  0  0  0  0  0  0  0  0  0
   21.2351   25.4288   64.7448 C   0  0  0  0  0  0  0  0  0  0  0  0
   19.7012   27.1688   63.9901 C   0  0  2  0  0  0  0  0  0  0  0  0
   19.0216   27.8031   62.9356 C   0  0  0  0  0  0  0  0  0  0  0  0
   20.8153   19.9026   53.9756 C   0  0  0  0  0  0  0  0  0  0  0  0
   19.6182   19.1159   53.6774 C   0  0  0  0  0  0  0  0  0  0  0  0
   20.2835   27.8037   65.0079 N   0  0  0  0  0  0  0  0  0  0  0  0
   21.0007   26.9697   65.8561 C   0  0  0  0  0  0  0  0  0  0  0  0
   19.5248   26.0664   61.4012 C   0  0  0  0  0  0  0  0  0  0  0  0
   18.7943   27.1380   61.7505 C   0  0  0  0  0  0  0  0  0  0  0  0
  1  2  1  0
  1  3  1  0
  3  4  2  0
  2  5  1  0
  5  6  1  0
  4  7  1  0
  7  8  1  0
  8  9  1  0
  9 10  1  0
  6 11  1  0
  6 12  2  0
 11 13  1  0
  9 14  1  0
  3 15  1  0
 14 16  1  0
  8 17  1  0
 15 17  1  0
 13 18  1  1
 13 19  1  0
 19 20  1  6
 10 21  1  0
 16 22  1  0
 21 22  1  0
 19 23  1  0
 18 24  1  0
 23 24  1  0
 11 25  1  0
 20 26  1  0
 25 26  1  0
M  END
$$$$
56
     RDKit          3D

 26 28  0  0  0  0  0  0  0  0999 V2000
   22.7330   22.3762   61.1096 N   0  0  0  0  0  0  0  0  0  0  0  0
   21.9740   22.2828   62.2696 C   0  0  0  0  0  0  0  0  0  0  0  0
   20.7426   23.1741   62.1313 C   0  0  2  0  0  0  0  0  0  0  0  0
   21.9278   22.5678   59.9872 C   0  0  2  0  0  0  0  0  0  0  0  0
   19.6343   22.9738   62.8798 O   0  0  0  0  0  0  0  0  0  0  0  0
   19.5204   22.5358   64.1299 C   0  0  0  0  0  0  0  0  0  0  0  0
   20.5833   23.0407   60.6591 C   0  0  2  0  0  0  0  0  0  0  0  0
   19.8991   23.4483   64.9839 O   0  0  0  0  0  0  0  0  0  0  0  0
   21.5596   21.2491   59.3072 C   0  0  0  0  0  0  0  0  0  0  0  0
   19.0641   21.3169   64.4580 C   0  0  0  0  0  0  0  0  0  0  0  0
   20.1509   24.3260   60.0534 N   0  0  0  0  0  0  0  0  0  0  0  0
   20.4293   21.0587   58.6338 N   0  0  0  0  0  0  0  0  0  0  0  0
   20.4796   20.8624   57.2052 C   0  0  2  0  0  0  0  0  0  0  0  0
   19.5546   20.0824   56.6247 C   0  0  0  0  0  0  0  0  0  0  0  0
   19.5857   19.8409   55.2153 C   0  0  0  0  0  0  0  0  0  0  0  0
   20.7238   20.2271   54.5055 C   0  0  1  0  0  0  0  0  0  0  0  0
   20.7258   19.9924   53.0224 C   0  0  0  0  0  0  0  0  0  0  0  0
   21.4887   21.3838   56.4046 N   0  0  0  0  0  0  0  0  0  0  0  0
   21.4517   21.0954   55.0210 C   0  0  0  0  0  0  0  0  0  0  0  0
   20.8697   25.3837   60.2678 C   0  0  0  0  0  0  0  0  0  0  0  0
   19.4139   24.1931   58.8312 C   0  0  0  0  0  0  0  0  0  0  0  0
   18.9168   23.1458   58.3469 O   0  0  0  0  0  0  0  0  0  0  0  0
   18.9273   25.4652   58.2846 C   0  0  0  0  0  0  0  0  0  0  0  0
   19.3211   26.5931   58.7605 C   0  0  1  0  0  0  0  0  0  0  0  0
   20.3237   26.6386   59.7478 N   0  0  0  0  0  0  0  0  0  0  0  0
   19.0283   27.8030   58.2060 N   0  0  0  0  0  0  0  0  0  0  0  0
  1  2  1  0
  2  3  1  0
  1  4  1  0
  3  5  1  1
  5  6  1  0
  3  7  1  0
  4  7  1  0
  6  8  2  0
  4  9  1  1
  6 10  1  0
  7 11  1  6
  9 12  1  0
 13 12  1  1
 13 14  1  0
 14 15  1  0
 15 16  1  0
 16 17  1  6
 13 18  1  0
 16 19  1  0
 18 19  1  0
 11 20  1  0
 11 21  1  0
 21 22  2  0
 21 23  1  0
 23 24  1  0
 20 25  1  0
 24 25  1  0
 24 26  1  6
M  END
$$$$
57
     RDKit          3D

 26 28  0  0  0  0  0  0  0  0999 V2000
   22.7259   22.3005   60.7365 N   0  0  0  0  0  0  0  0  0  0  0  0
   22.1301   22.2518   61.8823 C   0  0  0  0  0  0  0  0  0  0  0  0
   21.9282   21.7372   59.6391 C   0  0  0  0  0  0  0  0  0  0  0  0
   21.4552   20.5691   59.6247 N   0  0  0  0  0  0  0  0  0  0  0  0
   21.9316   23.5735   62.4758 C   0  0  0  0  0  0  0  0  0  0  0  0
   20.5944   24.2186   62.0495 C   0  0  0  0  0  0  0  0  0  0  0  0
   20.9758   19.9301   58.5457 C   0  0  0  0  0  0  0  0  0  0  0  0
   20.4006   20.6175   57.5970 C   0  0  0  0  0  0  0  0  0  0  0  0
   20.1420   19.9870   56.2062 C   0  0  0  0  0  0  0  0  0  0  0  0
   21.1650   20.1492   55.2628 C   0  0  0  0  0  0  0  0  0  0  0  0
   20.4161   25.5438   62.5734 N   0  0  0  0  0  0  0  0  0  0  0  0
   19.8087   23.6441   61.3693 O   0  0  0  0  0  0  0  0  0  0  0  0
   20.5149   25.9986   63.5837 C   0  0  2  0  0  0  0  0  0  0  0  0
   18.9796   19.2736   56.0185 C   0  0  0  0  0  0  0  0  0  0  0  0
   21.3582   22.7237   58.7624 C   0  0  0  0  0  0  0  0  0  0  0  0
   18.6673   18.8774   54.7184 C   0  0  0  0  0  0  0  0  0  0  0  0
   19.9792   22.0198   57.8292 C   0  0  0  0  0  0  0  0  0  0  0  0
   21.2351   25.4288   64.7448 C   0  0  0  0  0  0  0  0  0  0  0  0
   19.7012   27.1688   63.9901 C   0  0  2  0  0  0  0  0  0  0  0  0
   19.0216   27.8031   62.9356 C   0  0  0  0  0  0  0  0  0  0  0  0
   20.8153   19.9026   53.9756 C   0  0  0  0  0  0  0  0  0  0  0  0
   19.6182   19.1159   53.6774 C   0  0  0  0  0  0  0  0  0  0  0  0
   20.2835   27.8037   65.0079 N   0  0  0  0  0  0  0  0  0  0  0  0
   21.0007   26.9697   65.8561 C   0  0  2  0  0  0  0  0  0  0  0  0
   21.3949   27.7728   67.1479 C   0  0  0  0  0  0  0  0  0  0  0  0
   21.4463   25.8614   65.7840 N   0  0  0  0  0  0  0  0  0  0  0  0
  1  2  1  0
  1  3  1  0
  3  4  2  0
  2  5  1  0
  5  6  1  0
  4  7  1  0
  7  8  1  0
  8  9  1  0
  9 10  1  0
  6 11  1  0
  6 12  2  0
 13 11  1  1
  9 14  1  0
  3 15  1  0
 14 16  1  0
  8 17  1  0
 15 17  1  0
 13 18  1  0
 13 19  1  0
 19 20  1  6
 10 21  1  0
 16 22  1  0
 21 22  1  0
 19 23  1  0
 23 24  1  0
 24 25  1  6
 18 26  1  0
 24 26  1  0
M  END
$$$$
58
     RDKit          3D

 26 29  0  0  0  0  0  0  0  0999 V2000
   22.7288   21.9193   61.8949 N   0  0  0  0  0  0  0  0  0  0  0  0
   21.9062   22.3403   61.0011 C   0  0  1  0  0  0  0  0  0  0  0  0
   21.6678   21.5785   59.9081 N   0  0  0  0  0  0  0  0  0  0  0  0
   20.6643   21.9393   58.9838 C   0  0  2  0  0  0  0  0  0  0  0  0
   20.5470   22.9899   61.2544 C   0  0  1  0  0  0  0  0  0  0  0  0
   20.4520   24.0816   62.0004 N   0  0  0  0  0  0  0  0  0  0  0  0
   20.0203   23.1077   59.8583 N   0  0  0  0  0  0  0  0  0  0  0  0
   19.9885   21.7013   58.0082 C   0  0  1  0  0  0  0  0  0  0  0  0
   19.0964   23.8583   59.2464 C   0  0  0  0  0  0  0  0  0  0  0  0
   20.7660   24.1420   63.2957 C   0  0  0  0  0  0  0  0  0  0  0  0
   19.0727   22.5285   57.5179 C   0  0  0  0  0  0  0  0  0  0  0  0
   18.6549   23.5356   58.1506 N   0  0  0  0  0  0  0  0  0  0  0  0
   20.3701   20.3885   57.2233 C   0  0  2  0  0  0  0  0  0  0  0  0
   21.2146   23.1533   63.9903 O   0  0  0  0  0  0  0  0  0  0  0  0
   21.5298   20.4791   56.5481 C   0  0  0  0  0  0  0  0  0  0  0  0
   20.5911   25.3360   64.1832 C   0  0  0  0  0  0  0  0  0  0  0  0
   21.7107   19.5822   55.4589 C   0  0  0  0  0  0  0  0  0  0  0  0
   19.2824   19.4766   57.0931 C   0  0  2  0  0  0  0  0  0  0  0  0
   18.1797   19.3765   57.8735 F   0  0  0  0  0  0  0  0  0  0  0  0
   19.4422   18.4633   56.1262 C   0  0  0  0  0  0  0  0  0  0  0  0
   20.6401   18.6505   55.1663 C   0  0  0  0  0  0  0  0  0  0  0  0
   21.1675   25.5124   65.3620 C   0  0  0  0  0  0  0  0  0  0  0  0
   21.0403   26.8053   65.9666 C   0  0  0  0  0  0  0  0  0  0  0  0
   20.4388   27.8098   65.2592 N   0  0  0  0  0  0  0  0  0  0  0  0
   19.8892   27.4907   64.0674 C   0  0  0  0  0  0  0  0  0  0  0  0
   19.9145   26.3001   63.5306 C   0  0  0  0  0  0  0  0  0  0  0  0
  2  1  1  1
  2  3  1  0
  4  3  1  1
  2  5  1  0
  5  6  1  6
  4  7  1  0
  5  7  1  0
  4  8  1  0
  7  9  1  0
  6 10  1  0
  8 11  1  6
  9 12  1  0
 11 12  1  0
  8 13  1  0
 10 14  2  0
 13 15  1  6
 10 16  1  0
 15 17  1  0
 13 18  1  0
 18 19  1  1
 18 20  1  0
 17 21  1  0
 20 21  1  0
 16 22  1  0
 22 23  1  0
 23 24  1  0
 24 25  1  0
 16 26  1  0
 25 26  1  0
M  END
$$$$
59
     RDKit          3D

 26 30  0  0  0  0  0  0  0  0999 V2000
   20.9852   21.4046   63.3158 O   0  0  0  0  0  0  0  0  0  0  0  0
   21.3343   22.2070   62.2122 C   0  0  2  0  0  0  0  0  0  0  0  0
   22.0310   21.7925   61.1668 C   0  0  0  0  0  0  0  0  0  0  0  0
   21.5981   23.5966   62.6516 C   0  0  1  0  0  0  0  0  0  0  0  0
   21.5331   24.4585   61.5315 O   0  0  0  0  0  0  0  0  0  0  0  0
   20.3524   24.6061   60.9278 C   0  0  2  0  0  0  0  0  0  0  0  0
   20.1081   23.4192   60.1078 C   0  0  0  0  0  0  0  0  0  0  0  0
   19.8736   22.4995   61.4305 O   0  0  0  0  0  0  0  0  0  0  0  0
   20.8023   23.7669   63.8371 C   0  0  1  0  0  0  0  0  0  0  0  0
   20.5652   22.3711   64.2944 C   0  0  0  0  0  0  0  0  0  0  0  0
   20.7085   24.8526   64.5717 C   0  0  0  0  0  0  0  0  0  0  0  0
   19.9801   22.0745   65.5513 O   0  0  0  0  0  0  0  0  0  0  0  0
   20.4177   25.7348   59.8851 N   0  0  0  0  0  0  0  0  0  0  0  0
   20.3417   26.0973   64.0419 C   0  0  0  0  0  0  0  0  0  0  0  0
   21.1662   24.9021   65.9626 C   0  0  0  0  0  0  0  0  0  0  0  0
   19.8524   26.8773   59.9919 C   0  0  0  0  0  0  0  0  0  0  0  0
   19.9763   25.1060   58.5329 C   0  0  2  0  0  0  0  0  0  0  0  0
   20.1606   23.5774   58.8817 C   0  0  0  0  0  0  0  0  0  0  0  0
   20.3542   27.2408   64.9135 C   0  0  0  0  0  0  0  0  0  0  0  0
   20.8578   27.2179   66.1194 C   0  0  0  0  0  0  0  0  0  0  0  0
   19.3109   27.4194   61.0250 O   0  0  0  0  0  0  0  0  0  0  0  0
   21.2981   26.1118   66.6451 C   0  0  0  0  0  0  0  0  0  0  0  0
   19.7864   25.8602   57.5789 C   0  0  0  0  0  0  0  0  0  0  0  0
   19.7246   27.7393   58.8522 C   0  0  0  0  0  0  0  0  0  0  0  0
   19.5891   27.1421   57.6030 C   0  0  0  0  0  0  0  0  0  0  0  0
   21.5535   21.2034   60.0286 O   0  0  0  0  0  0  0  0  0  0  0  0
  1  2  1  0
  2  3  1  6
  2  4  1  0
  4  5  1  6
  6  5  1  6
  6  7  1  0
  2  8  1  0
  7  8  1  0
  4  9  1  0
  1 10  1  0
  9 10  1  0
  9 11  1  1
 10 12  2  0
  6 13  1  0
 11 14  1  0
 11 15  1  0
 13 16  1  0
 13 17  1  0
  7 18  1  0
 17 18  1  6
 14 19  1  0
 19 20  1  0
 16 21  2  0
 15 22  1  0
 20 22  1  0
 17 23  1  0
 16 24  1  0
 23 25  1  0
 24 25  1  0
  3 26  1  0
M  END
$$$$
6
     RDKit          3D

 10 10  0  0  0  0  0  0  0  0999 V2000
   22.3698   20.8899   55.0905 C   0  0  0  0  0  0  0  0  0  0  0  0
   21.5573   20.1117   55.9190 C   0  0  0  0  0  0  0  0  0  0  0  0
   21.7053   21.6835   54.1259 C   0  0  1  0  0  0  0  0  0  0  0  0
   20.2191   20.3251   56.0301 C   0  0  1  0  0  0  0  0  0  0  0  0
   22.4623   22.3918   53.1432 O   0  0  0  0  0  0  0  0  0  0  0  0
   20.2526   21.5748   53.9798 C   0  0  0  0  0  0  0  0  0  0  0  0
   19.5711   22.2444   52.8930 C   0  0  0  0  0  0  0  0  0  0  0  0
   19.4519   20.8413   54.8971 C   0  0  0  0  0  0  0  0  0  0  0  0
   19.5016   19.4337   56.9825 C   0  0  0  0  0  0  0  0  0  0  0  0
   18.2895   20.1057   57.4983 N   0  0  0  0  0  0  0  0  0  0  0  0
  1  2  1  0
  1  3  1  0
  2  4  1  0
  3  5  1  6
  3  6  1  0
  6  7  1  0
  4  8  1  0
  6  8  1  0
  4  9  1  6
  9 10  1  0
M  END
$$$$
60
     RDKit          3D

 26 29  0  0  0  0  0  0  0  0999 V2000
   22.7288   21.9193   61.8949 N   0  0  0  0  0  0  0  0  0  0  0  0
   21.9062   22.3403   61.0011 C   0  0  1  0  0  0  0  0  0  0  0  0
   21.6678   21.5785   59.9081 N   0  0  0  0  0  0  0  0  0  0  0  0
   20.6643   21.9393   58.9838 C   0  0  2  0  0  0  0  0  0  0  0  0
   20.5470   22.9899   61.2544 C   0  0  1  0  0  0  0  0  0  0  0  0
   20.4520   24.0816   62.0004 N   0  0  0  0  0  0  0  0  0  0  0  0
   20.0203   23.1077   59.8583 N   0  0  0  0  0  0  0  0  0  0  0  0
   19.9885   21.7013   58.0082 C   0  0  1  0  0  0  0  0  0  0  0  0
   19.0964   23.8583   59.2464 C   0  0  0  0  0  0  0  0  0  0  0  0
   20.7660   24.1420   63.2957 C   0  0  0  0  0  0  0  0  0  0  0  0
   19.0727   22.5285   57.5179 C   0  0  0  0  0  0  0  0  0  0  0  0
   18.6549   23.5356   58.1506 N   0  0  0  0  0  0  0  0  0  0  0  0
   20.3701   20.3885   57.2233 C   0  0  0  0  0  0  0  0  0  0  0  0
   21.2146   23.1533   63.9903 O   0  0  0  0  0  0  0  0  0  0  0  0
   21.5298   20.4791   56.5481 C   0  0  0  0  0  0  0  0  0  0  0  0
   20.5911   25.3360   64.1832 C   0  0  2  0  0  0  0  0  0  0  0  0
   21.7107   19.5822   55.4589 C   0  0  0  0  0  0  0  0  0  0  0  0
   20.1785   26.4715   63.5657 C   0  0  0  0  0  0  0  0  0  0  0  0
   20.9082   25.3691   65.5407 C   0  0  0  0  0  0  0  0  0  0  0  0
   19.0376   20.0634   56.6165 C   0  0  0  0  0  0  0  0  0  0  0  0
   19.1598   18.9774   55.5930 C   0  0  0  0  0  0  0  0  0  0  0  0
   20.1582   27.6450   64.5704 C   0  0  0  0  0  0  0  0  0  0  0  0
   20.2532   19.2674   54.6822 C   0  0  0  0  0  0  0  0  0  0  0  0
   20.8653   26.4212   66.3082 C   0  0  1  0  0  0  0  0  0  0  0  0
   21.3878   26.3627   67.6547 C   0  0  0  0  0  0  0  0  0  0  0  0
   20.5301   27.5995   65.7957 C   0  0  0  0  0  0  0  0  0  0  0  0
  2  1  1  1
  2  3  1  0
  4  3  1  1
  2  5  1  0
  5  6  1  6
  4  7  1  0
  5  7  1  0
  4  8  1  0
  7  9  1  0
  6 10  1  0
  8 11  1  0
  9 12  1  0
 11 12  1  0
  8 13  1  6
 10 14  2  0
 13 15  1  0
 16 10  1  6
 15 17  1  0
 16 18  1  0
 16 19  1  0
 13 20  1  0
 20 21  1  0
 18 22  1  0
 17 23  1  0
 21 23  1  0
 19 24  1  0
 24 25  1  6
 22 26  1  0
 24 26  1  0
M  END
$$$$
61
     RDKit          3D

 26 28  0  0  0  0  0  0  0  0999 V2000
   22.6715   22.0680   61.3768 N   0  0  0  0  0  0  0  0  0  0  0  0
   21.7846   22.0138   62.3731 C   0  0  0  0  0  0  0  0  0  0  0  0
   20.5497   22.8072   61.8925 C   0  0  1  0  0  0  0  0  0  0  0  0
   19.6154   23.2336   62.5784 O   0  0  0  0  0  0  0  0  0  0  0  0
   20.6398   23.0877   60.4625 C   0  0  2  0  0  0  0  0  0  0  0  0
   19.6098   23.2370   63.9226 C   0  0  2  0  0  0  0  0  0  0  0  0
   19.7863   23.5049   59.5813 C   0  0  1  0  0  0  0  0  0  0  0  0
   22.1652   22.3567   60.0570 C   0  0  0  0  0  0  0  0  0  0  0  0
   19.0441   21.9405   64.5078 C   0  0  0  0  0  0  0  0  0  0  0  0
   19.4160   24.7318   59.5615 N   0  0  0  0  0  0  0  0  0  0  0  0
   18.9382   25.1850   58.2964 N   0  0  0  0  0  0  0  0  0  0  0  0
   19.7993   22.7894   58.3180 C   0  0  0  0  0  0  0  0  0  0  0  0
   19.0099   24.4036   64.5396 C   0  0  0  0  0  0  0  0  0  0  0  0
   19.2335   23.9856   57.4751 C   0  0  0  0  0  0  0  0  0  0  0  0
   18.5835   26.4884   57.8839 C   0  0  0  0  0  0  0  0  0  0  0  0
   19.6396   20.7983   64.4082 O   0  0  0  0  0  0  0  0  0  0  0  0
   19.9035   25.4991   64.6269 N   0  0  0  0  0  0  0  0  0  0  0  0
   19.5421   26.8534   64.7865 C   0  0  0  0  0  0  0  0  0  0  0  0
   19.6188   27.3519   57.7513 C   0  0  0  0  0  0  0  0  0  0  0  0
   20.0681   27.3401   56.3196 C   0  0  0  0  0  0  0  0  0  0  0  0
   21.2558   25.3095   65.1237 C   0  0  0  0  0  0  0  0  0  0  0  0
   19.2449   27.7325   55.3167 O   0  0  0  0  0  0  0  0  0  0  0  0
   20.6875   27.7256   64.6840 C   0  0  0  0  0  0  0  0  0  0  0  0
   21.4101   26.2359   66.1718 N   0  0  0  0  0  0  0  0  0  0  0  0
   21.1674   26.8136   55.9147 O   0  0  0  0  0  0  0  0  0  0  0  0
   21.5140   27.5616   65.6923 C   0  0  0  0  0  0  0  0  0  0  0  0
  1  2  1  0
  2  3  1  0
  3  4  1  1
  3  5  1  0
  4  6  1  0
  5  7  1  0
  1  8  1  0
  5  8  1  6
  6  9  1  6
  7 10  1  0
 10 11  1  0
  7 12  1  6
  6 13  1  0
 11 14  1  0
 12 14  1  0
 11 15  1  0
  9 16  1  0
 13 17  1  0
 17 18  1  0
 15 19  1  0
 19 20  1  0
 17 21  1  0
 20 22  2  0
 18 23  1  0
 21 24  1  0
 20 25  1  0
 23 26  1  0
 24 26  1  0
M  END
$$$$
62
     RDKit          3D

 26 29  0  0  0  0  0  0  0  0999 V2000
   22.7288   21.9193   61.8949 N   0  0  0  0  0  0  0  0  0  0  0  0
   21.9062   22.3403   61.0011 C   0  0  1  0  0  0  0  0  0  0  0  0
   21.6678   21.5785   59.9081 N   0  0  0  0  0  0  0  0  0  0  0  0
   20.6643   21.9393   58.9838 C   0  0  2  0  0  0  0  0  0  0  0  0
   20.5470   22.9899   61.2544 C   0  0  1  0  0  0  0  0  0  0  0  0
   20.4520   24.0816   62.0004 N   0  0  0  0  0  0  0  0  0  0  0  0
   20.0203   23.1077   59.8583 N   0  0  0  0  0  0  0  0  0  0  0  0
   19.9885   21.7013   58.0082 C   0  0  1  0  0  0  0  0  0  0  0  0
   19.0964   23.8583   59.2464 C   0  0  0  0  0  0  0  0  0  0  0  0
   20.7660   24.1420   63.2957 C   0  0  0  0  0  0  0  0  0  0  0  0
   19.0727   22.5285   57.5179 C   0  0  0  0  0  0  0  0  0  0  0  0
   18.6549   23.5356   58.1506 N   0  0  0  0  0  0  0  0  0  0  0  0
   20.3701   20.3885   57.2233 C   0  0  0  0  0  0  0  0  0  0  0  0
   21.2146   23.1533   63.9903 O   0  0  0  0  0  0  0  0  0  0  0  0
   21.5298   20.4791   56.5481 C   0  0  0  0  0  0  0  0  0  0  0  0
   20.5911   25.3360   64.1832 C   0  0  2  0  0  0  0  0  0  0  0  0
   21.7107   19.5822   55.4589 C   0  0  0  0  0  0  0  0  0  0  0  0
   20.1785   26.4715   63.5657 C   0  0  0  0  0  0  0  0  0  0  0  0
   20.9082   25.3691   65.5407 C   0  0  0  0  0  0  0  0  0  0  0  0
   19.0376   20.0634   56.6165 C   0  0  0  0  0  0  0  0  0  0  0  0
   19.1598   18.9774   55.5930 C   0  0  0  0  0  0  0  0  0  0  0  0
   20.1582   27.6450   64.5704 C   0  0  0  0  0  0  0  0  0  0  0  0
   20.3748   19.4208   54.6822 C   0  0  0  0  0  0  0  0  0  0  0  0
   20.5630   27.5665   65.8537 C   0  0  2  0  0  0  0  0  0  0  0  0
   20.6750   28.6634   66.6999 F   0  0  0  0  0  0  0  0  0  0  0  0
   20.9909   26.4197   66.2926 C   0  0  0  0  0  0  0  0  0  0  0  0
  2  1  1  1
  2  3  1  0
  4  3  1  1
  2  5  1  0
  5  6  1  6
  4  7  1  0
  5  7  1  0
  4  8  1  0
  7  9  1  0
  6 10  1  0
  8 11  1  0
  9 12  1  0
 11 12  1  0
  8 13  1  6
 10 14  2  0
 13 15  1  0
 16 10  1  6
 15 17  1  0
 16 18  1  0
 16 19  1  0
 13 20  1  0
 20 21  1  0
 18 22  1  0
 17 23  1  0
 21 23  1  0
 22 24  1  0
 24 25  1  6
 19 26  1  0
 24 26  1  0
M  END
$$$$
63
     RDKit          3D

 26 29  0  0  0  0  0  0  0  0999 V2000
   22.7288   21.9193   61.8949 N   0  0  0  0  0  0  0  0  0  0  0  0
   21.9062   22.3403   61.0011 C   0  0  1  0  0  0  0  0  0  0  0  0
   21.6678   21.5785   59.9081 N   0  0  0  0  0  0  0  0  0  0  0  0
   20.6643   21.9393   58.9838 C   0  0  2  0  0  0  0  0  0  0  0  0
   20.5470   22.9899   61.2544 C   0  0  1  0  0  0  0  0  0  0  0  0
   20.4520   24.0816   62.0004 N   0  0  0  0  0  0  0  0  0  0  0  0
   20.0203   23.1077   59.8583 N   0  0  0  0  0  0  0  0  0  0  0  0
   19.9885   21.7013   58.0082 C   0  0  1  0  0  0  0  0  0  0  0  0
   19.0964   23.8583   59.2464 C   0  0  0  0  0  0  0  0  0  0  0  0
   20.7660   24.1420   63.2957 C   0  0  0  0  0  0  0  0  0  0  0  0
   19.0727   22.5285   57.5179 C   0  0  0  0  0  0  0  0  0  0  0  0
   18.6549   23.5356   58.1506 N   0  0  0  0  0  0  0  0  0  0  0  0
   20.3701   20.3885   57.2233 C   0  0  0  0  0  0  0  0  0  0  0  0
   21.2146   23.1533   63.9903 O   0  0  0  0  0  0  0  0  0  0  0  0
   21.5298   20.4791   56.5481 C   0  0  0  0  0  0  0  0  0  0  0  0
   20.5911   25.3360   64.1832 C   0  0  2  0  0  0  0  0  0  0  0  0
   21.7107   19.5822   55.4589 C   0  0  0  0  0  0  0  0  0  0  0  0
   20.1785   26.4715   63.5657 C   0  0  0  0  0  0  0  0  0  0  0  0
   20.9082   25.3691   65.5407 C   0  0  0  0  0  0  0  0  0  0  0  0
   19.0376   20.0634   56.6165 C   0  0  0  0  0  0  0  0  0  0  0  0
   19.1598   18.9774   55.5930 C   0  0  0  0  0  0  0  0  0  0  0  0
   20.3745   19.4187   54.6820 C   0  0  0  0  0  0  0  0  0  0  0  0
   20.8139   26.5366   66.2485 C   0  0  0  0  0  0  0  0  0  0  0  0
   19.7872   26.6289   62.2075 O   0  0  0  0  0  0  0  0  0  0  0  0
   20.0867   27.7719   64.2682 C   0  0  0  0  0  0  0  0  0  0  0  0
   20.5295   27.6974   65.5594 C   0  0  0  0  0  0  0  0  0  0  0  0
  2  1  1  1
  2  3  1  0
  4  3  1  1
  2  5  1  0
  5  6  1  6
  4  7  1  0
  5  7  1  0
  4  8  1  0
  7  9  1  0
  6 10  1  0
  8 11  1  0
  9 12  1  0
 11 12  1  0
  8 13  1  6
 10 14  2  0
 13 15  1  0
 16 10  1  6
 15 17  1  0
 16 18  1  0
 16 19  1  0
 13 20  1  0
 20 21  1  0
 17 22  1  0
 21 22  1  0
 19 23  1  0
 18 24  1  0
 18 25  1  0
 23 26  1  0
 25 26  1  0
M  END
$$$$
64
     RDKit          3D

 26 28  0  0  0  0  0  0  0  0999 V2000
   22.7259   22.3005   60.7365 N   0  0  0  0  0  0  0  0  0  0  0  0
   22.1301   22.2518   61.8823 C   0  0  0  0  0  0  0  0  0  0  0  0
   21.9282   21.7372   59.6391 C   0  0  0  0  0  0  0  0  0  0  0  0
   21.4552   20.5691   59.6247 N   0  0  0  0  0  0  0  0  0  0  0  0
   21.9316   23.5735   62.4758 C   0  0  0  0  0  0  0  0  0  0  0  0
   20.5944   24.2186   62.0495 C   0  0  0  0  0  0  0  0  0  0  0  0
   20.9758   19.9301   58.5457 C   0  0  0  0  0  0  0  0  0  0  0  0
   20.4006   20.6175   57.5970 C   0  0  0  0  0  0  0  0  0  0  0  0
   20.1420   19.9870   56.2062 C   0  0  0  0  0  0  0  0  0  0  0  0
   21.1650   20.1492   55.2628 C   0  0  0  0  0  0  0  0  0  0  0  0
   20.4161   25.5438   62.5734 N   0  0  0  0  0  0  0  0  0  0  0  0
   19.8087   23.6441   61.3693 O   0  0  0  0  0  0  0  0  0  0  0  0
   20.5149   25.9986   63.5837 C   0  0  2  0  0  0  0  0  0  0  0  0
   18.9796   19.2736   56.0185 C   0  0  0  0  0  0  0  0  0  0  0  0
   21.3582   22.7237   58.7624 C   0  0  0  0  0  0  0  0  0  0  0  0
   18.6673   18.8774   54.7184 C   0  0  0  0  0  0  0  0  0  0  0  0
   19.9792   22.0198   57.8292 C   0  0  0  0  0  0  0  0  0  0  0  0
   21.2351   25.4288   64.7448 C   0  0  0  0  0  0  0  0  0  0  0  0
   19.7012   27.1688   63.9901 C   0  0  0  0  0  0  0  0  0  0  0  0
   19.0216   27.8031   62.9356 C   0  0  0  0  0  0  0  0  0  0  0  0
   20.8153   19.9026   53.9756 C   0  0  0  0  0  0  0  0  0  0  0  0
   19.6182   19.1159   53.6774 C   0  0  0  0  0  0  0  0  0  0  0  0
   19.6281   27.6165   65.2827 C   0  0  0  0  0  0  0  0  0  0  0  0
   21.1450   25.8603   66.0221 C   0  0  1  0  0  0  0  0  0  0  0  0
   21.9472   25.2559   67.0838 C   0  0  0  0  0  0  0  0  0  0  0  0
   20.4523   27.0282   66.3702 C   0  0  0  0  0  0  0  0  0  0  0  0
  1  2  1  0
  1  3  1  0
  3  4  2  0
  2  5  1  0
  5  6  1  0
  4  7  1  0
  7  8  1  0
  8  9  1  0
  9 10  1  0
  6 11  1  0
  6 12  2  0
 13 11  1  1
  9 14  1  0
  3 15  1  0
 14 16  1  0
  8 17  1  0
 15 17  1  0
 13 18  1  0
 13 19  1  0
 19 20  1  0
 10 21  1  0
 16 22  1  0
 21 22  1  0
 19 23  1  0
 18 24  1  0
 24 25  1  6
 23 26  1  0
 24 26  1  0
M  END
$$$$
65
     RDKit          3D

 26 29  0  0  0  0  0  0  0  0999 V2000
   20.9852   21.4046   63.3158 N   0  0  0  0  0  0  0  0  0  0  0  0
   21.3578   22.1327   62.1720 C   0  0  2  0  0  0  0  0  0  0  0  0
   22.4435   22.6744   62.0163 N   0  0  0  0  0  0  0  0  0  0  0  0
   20.0729   21.8038   64.2863 C   0  0  1  0  0  0  0  0  0  0  0  0
   19.1938   22.7644   63.8876 N   0  0  0  0  0  0  0  0  0  0  0  0
   19.5163   20.9973   65.3158 C   0  0  0  0  0  0  0  0  0  0  0  0
   20.2962   22.9094   61.4770 C   0  0  2  0  0  0  0  0  0  0  0  0
   18.2304   23.2248   64.7964 C   0  0  0  0  0  0  0  0  0  0  0  0
   17.6504   24.4029   64.4679 O   0  0  0  0  0  0  0  0  0  0  0  0
   18.0409   22.6146   65.9353 N   0  0  0  0  0  0  0  0  0  0  0  0
   19.3920   23.3727   62.5363 C   0  0  0  0  0  0  0  0  0  0  0  0
   18.5300   21.4647   66.1119 C   0  0  0  0  0  0  0  0  0  0  0  0
   19.9534   22.8843   60.2345 C   0  0  2  0  0  0  0  0  0  0  0  0
   19.1654   23.8121   59.6973 N   0  0  0  0  0  0  0  0  0  0  0  0
   20.2376   21.7057   59.4362 N   0  0  0  0  0  0  0  0  0  0  0  0
   19.3993   24.0796   58.3931 C   0  0  0  0  0  0  0  0  0  0  0  0
   20.1612   21.8406   58.0306 C   0  0  1  0  0  0  0  0  0  0  0  0
   20.4403   20.7004   57.3076 C   0  0  2  0  0  0  0  0  0  0  0  0
   19.7190   23.0599   57.5756 C   0  0  0  0  0  0  0  0  0  0  0  0
   21.6521   20.6932   56.5835 N   0  0  0  0  0  0  0  0  0  0  0  0
   21.6423   20.5396   55.3033 C   0  0  0  0  0  0  0  0  0  0  0  0
   19.5825   19.7385   57.0700 C   0  0  1  0  0  0  0  0  0  0  0  0
   18.4888   19.5088   57.8803 F   0  0  0  0  0  0  0  0  0  0  0  0
   20.6207   19.6825   54.7546 C   0  0  2  0  0  0  0  0  0  0  0  0
   20.5124   19.3178   53.3953 C   0  0  0  0  0  0  0  0  0  0  0  0
   19.5094   19.4127   55.6294 C   0  0  0  0  0  0  0  0  0  0  0  0
  1  2  1  0
  2  3  1  1
  1  4  1  0
  4  5  1  0
  4  6  1  6
  2  7  1  0
  5  8  1  0
  8  9  2  0
  8 10  1  0
  5 11  1  0
  7 11  1  1
  6 12  1  0
 10 12  1  0
  7 13  1  0
 13 14  1  1
 13 15  1  0
 14 16  1  0
 15 17  1  0
 17 18  1  0
 16 19  1  0
 17 19  1  1
 18 20  1  6
 20 21  1  0
 18 22  1  0
 22 23  1  6
 21 24  1  0
 24 25  1  6
 22 26  1  0
 24 26  1  0
M  END
$$$$
66
     RDKit          3D

 26 28  0  0  0  0  0  0  0  0999 V2000
   22.7259   22.3005   60.7365 N   0  0  0  0  0  0  0  0  0  0  0  0
   22.1301   22.2518   61.8823 C   0  0  0  0  0  0  0  0  0  0  0  0
   21.9282   21.7372   59.6391 C   0  0  0  0  0  0  0  0  0  0  0  0
   21.4552   20.5691   59.6247 N   0  0  0  0  0  0  0  0  0  0  0  0
   21.9316   23.5735   62.4758 C   0  0  0  0  0  0  0  0  0  0  0  0
   20.5944   24.2186   62.0495 C   0  0  0  0  0  0  0  0  0  0  0  0
   20.9758   19.9301   58.5457 C   0  0  0  0  0  0  0  0  0  0  0  0
   20.4006   20.6175   57.5970 C   0  0  0  0  0  0  0  0  0  0  0  0
   20.1420   19.9870   56.2062 C   0  0  0  0  0  0  0  0  0  0  0  0
   21.1650   20.1492   55.2628 C   0  0  0  0  0  0  0  0  0  0  0  0
   20.4161   25.5438   62.5734 N   0  0  0  0  0  0  0  0  0  0  0  0
   19.8087   23.6441   61.3693 O   0  0  0  0  0  0  0  0  0  0  0  0
   20.5149   25.9986   63.5837 C   0  0  2  0  0  0  0  0  0  0  0  0
   18.9796   19.2736   56.0185 C   0  0  0  0  0  0  0  0  0  0  0  0
   21.3582   22.7237   58.7624 C   0  0  0  0  0  0  0  0  0  0  0  0
   18.6673   18.8774   54.7184 C   0  0  0  0  0  0  0  0  0  0  0  0
   19.9792   22.0198   57.8292 C   0  0  0  0  0  0  0  0  0  0  0  0
   21.2351   25.4288   64.7448 C   0  0  0  0  0  0  0  0  0  0  0  0
   19.7012   27.1688   63.9901 C   0  0  2  0  0  0  0  0  0  0  0  0
   19.0216   27.8031   62.9356 C   0  0  0  0  0  0  0  0  0  0  0  0
   20.8153   19.9026   53.9756 C   0  0  0  0  0  0  0  0  0  0  0  0
   19.6182   19.1159   53.6774 C   0  0  0  0  0  0  0  0  0  0  0  0
   19.9293   27.6934   65.2760 N   0  0  0  0  0  0  0  0  0  0  0  0
   20.7331   26.8966   66.0663 C   0  0  2  0  0  0  0  0  0  0  0  0
   20.9098   27.5753   67.4107 N   0  0  0  0  0  0  0  0  0  0  0  0
   21.4081   25.8711   66.0172 N   0  0  0  0  0  0  0  0  0  0  0  0
  1  2  1  0
  1  3  1  0
  3  4  2  0
  2  5  1  0
  5  6  1  0
  4  7  1  0
  7  8  1  0
  8  9  1  0
  9 10  1  0
  6 11  1  0
  6 12  2  0
 13 11  1  1
  9 14  1  0
  3 15  1  0
 14 16  1  0
  8 17  1  0
 15 17  1  0
 13 18  1  0
 13 19  1  0
 19 20  1  6
 10 21  1  0
 16 22  1  0
 21 22  1  0
 19 23  1  0
 23 24  1  0
 24 25  1  6
 18 26  1  0
 24 26  1  0
M  END
$$$$
67
     RDKit          3D

 27 28  0  0  0  0  0  0  0  0999 V2000
   22.6125   21.9801   61.6250 N   0  0  0  0  0  0  0  0  0  0  0  0
   21.6773   22.1523   62.5264 C   0  0  0  0  0  0  0  0  0  0  0  0
   20.5687   22.9375   62.0174 C   0  0  2  0  0  0  0  0  0  0  0  0
   22.1734   22.1578   60.3222 C   0  0  0  0  0  0  0  0  0  0  0  0
   20.8429   22.9614   60.5146 C   0  0  1  0  0  0  0  0  0  0  0  0
   19.8366   22.4807   59.5567 C   0  0  0  0  0  0  0  0  0  0  0  0
   20.1063   22.7421   58.2456 N   0  0  0  0  0  0  0  0  0  0  0  0
   19.5685   23.6459   62.4976 O   0  0  0  0  0  0  0  0  0  0  0  0
   19.6324   23.8668   57.7487 C   0  0  2  0  0  0  0  0  0  0  0  0
   19.4623   21.5204   57.5024 C   0  0  0  0  0  0  0  0  0  0  0  0
   19.8197   24.3832   63.6245 C   0  0  0  0  0  0  0  0  0  0  0  0
   20.2089   24.4392   56.6171 C   0  0  0  0  0  0  0  0  0  0  0  0
   20.0217   25.9230   56.3719 C   0  0  2  0  0  0  0  0  0  0  0  0
   20.3867   20.3778   57.2000 C   0  0  0  0  0  0  0  0  0  0  0  0
   20.9136   20.3429   55.9147 C   0  0  0  0  0  0  0  0  0  0  0  0
   20.0823   20.0929   54.8340 C   0  0  0  0  0  0  0  0  0  0  0  0
   18.7077   19.6093   54.9715 C   0  0  0  0  0  0  0  0  0  0  0  0
   19.3454   24.9394   58.7792 C   0  0  0  0  0  0  0  0  0  0  0  0
   20.5468   26.6097   55.3129 C   0  0  0  0  0  0  0  0  0  0  0  0
   18.9626   25.0153   59.8350 O   0  0  0  0  0  0  0  0  0  0  0  0
   21.1613   26.0644   54.3648 O   0  0  0  0  0  0  0  0  0  0  0  0
   20.1134   25.7461   63.4077 C   0  0  0  0  0  0  0  0  0  0  0  0
   19.6148   26.3316   58.1218 C   0  0  0  0  0  0  0  0  0  0  0  0
   20.2413   27.8738   55.2561 O   0  0  0  0  0  0  0  0  0  0  0  0
   18.7441   24.2954   64.6932 C   0  0  0  0  0  0  0  0  0  0  0  0
   18.5791   22.9819   65.2546 O   0  0  0  0  0  0  0  0  0  0  0  0
   21.3505   26.0358   62.9725 O   0  0  0  0  0  0  0  0  0  0  0  0
  1  2  1  0
  2  3  1  0
  1  4  1  0
  3  5  1  0
  4  5  1  0
  5  6  1  6
  6  7  1  0
  3  8  1  1
  9  7  1  1
  7 10  1  0
  8 11  1  0
  9 12  1  0
 12 13  1  0
 10 14  1  0
 14 15  1  0
 15 16  1  0
 16 17  1  0
  9 18  1  0
 13 19  1  1
 18 20  2  0
 19 21  2  0
 11 22  1  0
 13 23  1  0
 18 23  1  0
 19 24  1  0
 11 25  1  0
 25 26  1  0
 22 27  1  0
M  END
$$$$
68
     RDKit          3D

 27 30  0  0  0  0  0  0  0  0999 V2000
   22.5907   21.9797   60.8425 N   0  0  0  0  0  0  0  0  0  0  0  0
   21.9092   22.1300   62.0302 C   0  0  0  0  0  0  0  0  0  0  0  0
   21.8010   22.0921   59.7152 C   0  0  1  0  0  0  0  0  0  0  0  0
   21.3144   20.9418   59.1642 C   0  0  0  0  0  0  0  0  0  0  0  0
   21.0536   23.3588   59.6277 C   0  0  1  0  0  0  0  0  0  0  0  0
   20.4167   23.7755   58.5426 N   0  0  0  0  0  0  0  0  0  0  0  0
   20.1666   21.0164   58.1868 C   0  0  2  0  0  0  0  0  0  0  0  0
   20.0557   23.2355   60.9003 C   0  0  0  0  0  0  0  0  0  0  0  0
   19.8071   20.0411   57.2926 C   0  0  0  0  0  0  0  0  0  0  0  0
   20.9601   23.2125   62.1434 C   0  0  0  0  0  0  0  0  0  0  0  0
   19.8825   24.9504   58.1725 C   0  0  0  0  0  0  0  0  0  0  0  0
   20.6543   23.8708   63.2201 C   0  0  0  0  0  0  0  0  0  0  0  0
   18.7347   19.9662   56.5805 C   0  0  0  0  0  0  0  0  0  0  0  0
   19.9339   25.0678   63.1650 C   0  0  0  0  0  0  0  0  0  0  0  0
   20.4146   26.1674   63.7003 C   0  0  0  0  0  0  0  0  0  0  0  0
   20.3061   22.3874   57.4420 C   0  0  0  0  0  0  0  0  0  0  0  0
   21.7308   26.2439   64.2456 C   0  0  0  0  0  0  0  0  0  0  0  0
   21.2138   23.4134   64.4522 C   0  0  0  0  0  0  0  0  0  0  0  0
   20.2641   25.6072   57.1606 N   0  0  0  0  0  0  0  0  0  0  0  0
   18.9643   25.4823   58.9999 N   0  0  0  0  0  0  0  0  0  0  0  0
   18.8163   19.4494   55.1922 C   0  0  0  0  0  0  0  0  0  0  0  0
   19.6902   26.6349   56.6672 C   0  0  2  0  0  0  0  0  0  0  0  0
   18.4352   26.6548   58.7104 C   0  0  0  0  0  0  0  0  0  0  0  0
   20.0985   27.2635   55.5053 N   0  0  0  0  0  0  0  0  0  0  0  0
   18.7883   27.3190   57.5656 C   0  0  0  0  0  0  0  0  0  0  0  0
   21.7774   24.7434   65.1710 C   0  0  0  0  0  0  0  0  0  0  0  0
   21.2782   27.0438   54.9497 O   0  0  0  0  0  0  0  0  0  0  0  0
  1  2  1  0
  1  3  1  0
  3  4  1  1
  3  5  1  0
  5  6  1  0
  4  7  1  0
  5  8  1  1
  7  9  1  6
  2 10  1  0
  8 10  1  0
  6 11  1  0
 10 12  2  3
  9 13  1  0
 12 14  1  0
 14 15  1  0
  6 16  1  0
  7 16  1  0
 15 17  1  0
 12 18  1  0
 11 19  1  0
 11 20  2  0
 13 21  1  0
 19 22  1  0
 20 23  1  0
 22 24  1  1
 22 25  1  0
 23 25  1  0
 17 26  1  0
 18 26  1  0
 24 27  1  0
M  END
$$$$
69
     RDKit          3D

 27 29  0  0  0  0  0  0  0  0999 V2000
   22.7259   22.3005   60.7365 N   0  0  0  0  0  0  0  0  0  0  0  0
   21.5216   22.1216   60.0362 C   0  0  1  0  0  0  0  0  0  0  0  0
   21.4280   21.0031   59.2998 C   0  0  0  0  0  0  0  0  0  0  0  0
   20.2797   22.3027   60.7899 C   0  0  0  0  0  0  0  0  0  0  0  0
   20.4303   23.0161   62.0142 C   0  0  2  0  0  0  0  0  0  0  0  0
   20.7338   20.9849   57.9521 N   0  0  0  0  0  0  0  0  0  0  0  0
   19.3592   23.1281   62.8454 O   0  0  0  0  0  0  0  0  0  0  0  0
   20.8498   19.9536   57.0951 C   0  0  0  0  0  0  0  0  0  0  0  0
   19.4922   22.4221   64.1576 C   0  0  0  0  0  0  0  0  0  0  0  0
   21.7566   19.1907   57.0828 O   0  0  0  0  0  0  0  0  0  0  0  0
   19.8549   20.0206   55.9999 C   0  0  0  0  0  0  0  0  0  0  0  0
   21.1632   24.3156   62.0721 C   0  0  0  0  0  0  0  0  0  0  0  0
   18.9237   21.3897   64.3456 C   0  0  0  0  0  0  0  0  0  0  0  0
   19.1152   20.6017   65.5855 C   0  0  0  0  0  0  0  0  0  0  0  0
   18.7116   19.3607   56.2219 C   0  0  0  0  0  0  0  0  0  0  0  0
   20.3158   20.7977   66.1403 C   0  0  0  0  0  0  0  0  0  0  0  0
   20.8442   25.1531   63.0527 N   0  0  0  0  0  0  0  0  0  0  0  0
   20.4814   19.5514   54.6846 C   0  0  0  0  0  0  0  0  0  0  0  0
   17.6615   19.5230   55.2178 C   0  0  0  0  0  0  0  0  0  0  0  0
   20.4795   22.9465   65.0998 C   0  0  0  0  0  0  0  0  0  0  0  0
   19.5377   19.7650   53.7551 C   0  0  0  0  0  0  0  0  0  0  0  0
   20.8326   22.1316   66.1504 C   0  0  0  0  0  0  0  0  0  0  0  0
   18.2340   19.5551   53.7630 C   0  0  0  0  0  0  0  0  0  0  0  0
   19.9858   26.1613   62.7453 C   0  0  0  0  0  0  0  0  0  0  0  0
   19.7060   27.0683   63.7250 C   0  0  0  0  0  0  0  0  0  0  0  0
   20.6964   26.8650   64.8259 C   0  0  0  0  0  0  0  0  0  0  0  0
   21.4087   25.7352   64.2568 C   0  0  0  0  0  0  0  0  0  0  0  0
  2  1  1  1
  2  3  1  0
  2  4  1  0
  5  4  1  6
  3  6  1  0
  5  7  1  0
  6  8  1  0
  7  9  1  0
  8 10  2  0
  8 11  1  0
  5 12  1  0
  9 13  1  0
 13 14  1  0
 11 15  1  0
 14 16  1  0
 12 17  1  0
 11 18  1  0
 15 19  1  0
  9 20  1  0
 18 21  1  0
 16 22  1  0
 20 22  1  0
 19 23  1  0
 21 23  1  0
 17 24  1  0
 24 25  1  0
 25 26  1  0
 17 27  1  0
 26 27  1  0
M  END
$$$$
7
     RDKit          3D

 11 12  0  0  0  0  0  0  0  0999 V2000
   21.6735   21.3283   62.8232 N   0  0  0  0  0  0  0  0  0  0  0  0
   20.5482   21.6098   63.3621 C   0  0  0  0  0  0  0  0  0  0  0  0
   19.7433   22.6344   62.7637 C   0  0  1  0  0  0  0  0  0  0  0  0
   19.8495   21.1025   64.5204 C   0  0  0  0  0  0  0  0  0  0  0  0
   22.0504   21.9574   61.6831 C   0  0  0  0  0  0  0  0  0  0  0  0
   18.5793   23.0550   63.4036 O   0  0  0  0  0  0  0  0  0  0  0  0
   20.2537   23.4475   61.8412 C   0  0  0  0  0  0  0  0  0  0  0  0
   21.5253   22.8116   61.1071 C   0  0  2  0  0  0  0  0  0  0  0  0
   18.3753   22.3983   64.6315 C   0  0  0  0  0  0  0  0  0  0  0  0
   21.8135   23.3483   59.7642 N   0  0  0  0  0  0  0  0  0  0  0  0
   18.9541   21.5539   65.0482 C   0  0  0  0  0  0  0  0  0  0  0  0
  1  2  1  0
  2  3  1  0
  2  4  1  0
  1  5  1  0
  3  6  1  0
  3  7  1  1
  5  8  1  0
  7  8  1  0
  6  9  1  0
  8 10  1  6
  4 11  1  0
  9 11  1  0
M  END
$$$$
70
     RDKit          3D

 27 31  0  0  0  0  0  0  0  0999 V2000
   21.1517   27.9716   54.3643 O   0  0  0  0  0  0  0  0  0  0  0  0
   20.4864   27.0867   54.9342 C   0  0  0  0  0  0  0  0  0  0  0  0
   19.7016   27.1931   56.0038 N   0  0  0  0  0  0  0  0  0  0  0  0
   20.6273   25.6902   54.3871 N   0  0  0  0  0  0  0  0  0  0  0  0
   20.1450   24.6730   55.0299 C   0  0  0  0  0  0  0  0  0  0  0  0
   19.4748   24.8573   56.2643 C   0  0  2  0  0  0  0  0  0  0  0  0
   19.3118   26.1994   56.8180 C   0  0  2  0  0  0  0  0  0  0  0  0
   18.6940   26.4247   58.0660 N   0  0  0  0  0  0  0  0  0  0  0  0
   19.4458   26.2370   59.1674 C   0  0  1  0  0  0  0  0  0  0  0  0
   20.3267   23.4146   54.5658 N   0  0  0  0  0  0  0  0  0  0  0  0
   19.8951   22.5261   55.7672 C   0  0  2  0  0  0  0  0  0  0  0  0
   21.2284   22.9937   53.7668 C   0  0  0  0  0  0  0  0  0  0  0  0
   19.2402   23.6324   56.9031 C   0  0  0  0  0  0  0  0  0  0  0  0
   20.5850   22.2534   52.7349 C   0  0  0  0  0  0  0  0  0  0  0  0
   19.0079   26.8355   60.3765 N   0  0  0  0  0  0  0  0  0  0  0  0
   19.6328   26.5468   61.4913 C   0  0  1  0  0  0  0  0  0  0  0  0
   19.2613   26.9629   62.7147 C   0  0  0  0  0  0  0  0  0  0  0  0
   21.1866   20.8784   52.5698 C   0  0  0  0  0  0  0  0  0  0  0  0
   19.9213   26.6504   63.9385 C   0  0  0  0  0  0  0  0  0  0  0  0
   20.4713   25.3847   59.3496 N   0  0  0  0  0  0  0  0  0  0  0  0
   20.9243   25.6067   63.7831 C   0  0  0  0  0  0  0  0  0  0  0  0
   20.4432   19.9739   53.1291 C   0  0  0  0  0  0  0  0  0  0  0  0
   20.6446   25.4754   61.3863 C   0  0  1  0  0  0  0  0  0  0  0  0
   20.0999   19.8339   54.4987 C   0  0  0  0  0  0  0  0  0  0  0  0
   20.4269   20.9898   55.3866 C   0  0  0  0  0  0  0  0  0  0  0  0
   21.1798   25.0895   62.6954 C   0  0  0  0  0  0  0  0  0  0  0  0
   20.8821   24.9332   60.2643 N   0  0  0  0  0  0  0  0  0  0  0  0
  1  2  2  0
  2  3  1  0
  2  4  1  0
  4  5  1  0
  5  6  1  0
  3  7  1  0
  6  7  1  0
  7  8  1  6
  9  8  1  1
  5 10  1  0
 10 11  1  0
 10 12  1  0
  6 13  1  1
 11 13  1  1
 12 14  1  0
  9 15  1  0
 15 16  1  0
 16 17  1  1
 14 18  1  0
 17 19  1  0
  9 20  1  0
 19 21  1  0
 18 22  1  0
 16 23  1  0
 22 24  1  0
 11 25  1  0
 24 25  1  0
 21 26  1  0
 23 26  1  1
 20 27  1  0
 23 27  1  0
M  END
$$$$
71
     RDKit          3D

 27 30  0  0  0  0  0  0  0  0999 V2000
   22.7330   22.3762   61.1096 N   0  0  0  0  0  0  0  0  0  0  0  0
   21.9740   22.2828   62.2696 C   0  0  0  0  0  0  0  0  0  0  0  0
   20.7426   23.1741   62.1313 C   0  0  1  0  0  0  0  0  0  0  0  0
   21.9278   22.5678   59.9872 C   0  0  0  0  0  0  0  0  0  0  0  0
   19.6343   22.9738   62.8798 O   0  0  0  0  0  0  0  0  0  0  0  0
   19.3504   23.4196   64.2494 C   0  0  0  0  0  0  0  0  0  0  0  0
   18.7332   22.5449   65.0237 C   0  0  0  0  0  0  0  0  0  0  0  0
   19.1740   21.1412   64.9130 C   0  0  0  0  0  0  0  0  0  0  0  0
   20.9694   21.5708   59.8627 C   0  0  1  0  0  0  0  0  0  0  0  0
   20.9980   24.5720   62.0841 C   0  0  0  0  0  0  0  0  0  0  0  0
   19.7608   24.7405   64.4433 C   0  0  1  0  0  0  0  0  0  0  0  0
   20.1253   22.5976   60.7783 C   0  0  0  0  0  0  0  0  0  0  0  0
   19.6013   25.3408   65.5858 C   0  0  0  0  0  0  0  0  0  0  0  0
   20.5389   25.3442   63.2784 C   0  0  1  0  0  0  0  0  0  0  0  0
   20.0943   26.6367   65.9096 C   0  0  0  0  0  0  0  0  0  0  0  0
   20.9965   26.6277   63.6790 C   0  0  0  0  0  0  0  0  0  0  0  0
   20.7833   27.3046   64.8478 C   0  0  0  0  0  0  0  0  0  0  0  0
   20.4510   21.3785   58.5529 C   0  0  0  0  0  0  0  0  0  0  0  0
   20.9377   20.2677   57.8405 C   0  0  0  0  0  0  0  0  0  0  0  0
   20.4573   19.9543   56.5280 C   0  0  1  0  0  0  0  0  0  0  0  0
   19.1461   19.6351   56.3250 C   0  0  0  0  0  0  0  0  0  0  0  0
   18.6905   19.5107   54.9686 C   0  0  0  0  0  0  0  0  0  0  0  0
   19.6056   19.6177   53.9330 C   0  0  0  0  0  0  0  0  0  0  0  0
   20.8068   20.0915   54.1857 C   0  0  2  0  0  0  0  0  0  0  0  0
   21.7970   20.2386   53.1340 O   0  0  0  0  0  0  0  0  0  0  0  0
   21.3449   20.3667   55.4403 C   0  0  0  0  0  0  0  0  0  0  0  0
   21.4160   21.3048   52.2292 C   0  0  0  0  0  0  0  0  0  0  0  0
  1  2  1  0
  3  2  1  1
  1  4  1  0
  3  5  1  0
  5  6  1  0
  6  7  1  0
  7  8  1  0
  4  9  1  0
  3 10  1  0
  6 11  1  0
  3 12  1  0
  9 12  1  0
 11 13  1  1
 14 10  1  1
 11 14  1  0
 13 15  1  0
 14 16  1  0
 15 17  1  0
 16 17  1  0
  9 18  1  6
 18 19  1  0
 20 19  1  1
 20 21  1  0
 21 22  1  0
 22 23  1  0
 23 24  1  0
 24 25  1  1
 20 26  1  0
 24 26  1  0
 25 27  1  0
M  END
$$$$
72
     RDKit          3D

 27 29  0  0  0  0  0  0  0  0999 V2000
   22.7754   22.2595   60.9306 N   0  0  0  0  0  0  0  0  0  0  0  0
   22.1136   22.1943   62.1222 C   0  0  0  0  0  0  0  0  0  0  0  0
   21.8103   22.0933   59.8647 C   0  0  0  0  0  0  0  0  0  0  0  0
   20.6761   21.9638   61.9261 C   0  0  2  0  0  0  0  0  0  0  0  0
   20.5047   22.1944   60.4889 C   0  0  1  0  0  0  0  0  0  0  0  0
   19.8373   22.8504   62.7500 C   0  0  1  0  0  0  0  0  0  0  0  0
   19.2911   22.2904   63.8711 C   0  0  0  0  0  0  0  0  0  0  0  0
   18.5021   22.9795   64.6672 C   0  0  0  0  0  0  0  0  0  0  0  0
   18.0978   22.4553   65.9968 C   0  0  0  0  0  0  0  0  0  0  0  0
   18.3688   21.0812   66.2113 C   0  0  0  0  0  0  0  0  0  0  0  0
   19.6826   24.1158   62.4569 O   0  0  0  0  0  0  0  0  0  0  0  0
   20.0520   23.5433   60.0708 N   0  0  0  0  0  0  0  0  0  0  0  0
   19.7046   20.9350   64.2706 C   0  0  0  0  0  0  0  0  0  0  0  0
   19.2338   20.4129   65.5316 C   0  0  0  0  0  0  0  0  0  0  0  0
   20.1970   24.5400   61.2381 C   0  0  1  0  0  0  0  0  0  0  0  0
   19.6088   25.9266   60.9354 C   0  0  0  0  0  0  0  0  0  0  0  0
   20.1505   23.9471   58.7704 C   0  0  0  0  0  0  0  0  0  0  0  0
   19.8702   26.8430   61.9002 N   0  0  0  0  0  0  0  0  0  0  0  0
   18.9744   24.3068   58.2260 O   0  0  0  0  0  0  0  0  0  0  0  0
   21.1003   24.0437   57.9129 N   0  0  0  0  0  0  0  0  0  0  0  0
   18.8626   27.7858   62.0991 C   0  0  0  0  0  0  0  0  0  0  0  0
   20.9379   24.3335   56.5719 C   0  0  0  0  0  0  0  0  0  0  0  0
   20.3876   25.7207   56.2512 C   0  0  0  0  0  0  0  0  0  0  0  0
   20.6295   26.2822   54.9700 C   0  0  0  0  0  0  0  0  0  0  0  0
   20.8485   27.6211   54.8798 O   0  0  0  0  0  0  0  0  0  0  0  0
   20.8393   26.5441   62.8395 C   0  0  0  0  0  0  0  0  0  0  0  0
   21.0042   25.4967   54.0649 O   0  0  0  0  0  0  0  0  0  0  0  0
  1  2  1  0
  1  3  1  0
  4  2  1  1
  5  3  1  6
  4  5  1  0
  4  6  1  0
  6  7  1  1
  7  8  1  0
  8  9  1  0
  9 10  1  0
  6 11  1  0
  5 12  1  0
  7 13  1  0
 10 14  1  0
 13 14  1  0
 11 15  1  0
 12 15  1  0
 15 16  1  6
 12 17  1  0
 16 18  1  0
 17 19  2  0
 17 20  1  0
 18 21  1  0
 20 22  1  0
 22 23  1  0
 23 24  1  0
 24 25  1  0
 18 26  1  0
 24 27  2  0
M  END
$$$$
73
     RDKit          3D

 27 29  0  0  0  0  0  0  0  0999 V2000
   22.7259   22.3005   60.7365 N   0  0  0  0  0  0  0  0  0  0  0  0
   22.1301   22.2518   61.8823 C   0  0  0  0  0  0  0  0  0  0  0  0
   21.9282   21.7372   59.6391 C   0  0  0  0  0  0  0  0  0  0  0  0
   21.4552   20.5691   59.6247 N   0  0  0  0  0  0  0  0  0  0  0  0
   21.9316   23.5735   62.4758 C   0  0  0  0  0  0  0  0  0  0  0  0
   20.5944   24.2186   62.0495 C   0  0  0  0  0  0  0  0  0  0  0  0
   20.9758   19.9301   58.5457 C   0  0  0  0  0  0  0  0  0  0  0  0
   20.4006   20.6175   57.5970 C   0  0  0  0  0  0  0  0  0  0  0  0
   20.1420   19.9870   56.2062 C   0  0  1  0  0  0  0  0  0  0  0  0
   21.1650   20.1492   55.2628 C   0  0  2  0  0  0  0  0  0  0  0  0
   20.4161   25.5438   62.5734 N   0  0  0  0  0  0  0  0  0  0  0  0
   19.8087   23.6441   61.3693 O   0  0  0  0  0  0  0  0  0  0  0  0
   19.5333   26.4040   62.1432 C   0  0  0  0  0  0  0  0  0  0  0  0
   19.2606   27.4225   63.1037 C   0  0  0  0  0  0  0  0  0  0  0  0
   20.0336   27.3652   64.2770 C   0  0  2  0  0  0  0  0  0  0  0  0
   20.2583   28.0771   65.3785 N   0  0  0  0  0  0  0  0  0  0  0  0
   20.8063   26.0333   63.8882 C   0  0  0  0  0  0  0  0  0  0  0  0
   21.4306   28.1527   65.9107 C   0  0  0  0  0  0  0  0  0  0  0  0
   21.3128   22.7842   58.8231 N   0  0  0  0  0  0  0  0  0  0  0  0
   18.9372   19.2700   56.0533 C   0  0  0  0  0  0  0  0  0  0  0  0
   19.9936   22.0767   57.8519 C   0  0  0  0  0  0  0  0  0  0  0  0
   21.7624   29.0997   66.7853 N   0  0  0  0  0  0  0  0  0  0  0  0
   22.0220   26.8301   66.3556 N   0  0  0  0  0  0  0  0  0  0  0  0
   18.5957   18.8657   54.7542 C   0  0  0  0  0  0  0  0  0  0  0  0
   22.3253   20.8251   55.3403 N   0  0  0  0  0  0  0  0  0  0  0  0
   20.5973   19.8723   53.8184 C   0  0  0  0  0  0  0  0  0  0  0  0
   19.4086   19.1905   53.7729 C   0  0  0  0  0  0  0  0  0  0  0  0
  1  2  1  0
  1  3  1  0
  3  4  2  0
  2  5  1  0
  5  6  1  0
  4  7  1  0
  7  8  1  0
  9  8  1  1
  9 10  1  0
  6 11  1  0
  6 12  2  0
 11 13  1  0
 13 14  1  0
 14 15  1  0
 15 16  1  6
 11 17  1  0
 15 17  1  0
 16 18  1  0
  3 19  1  0
  9 20  1  0
  8 21  1  0
 19 21  1  0
 18 22  1  0
 18 23  1  0
 20 24  1  0
 10 25  1  6
 10 26  1  0
 24 27  1  0
 26 27  1  0
M  END
$$$$
74
     RDKit          3D

 27 31  0  0  0  0  0  0  0  0999 V2000
   21.0347   27.9269   54.5582 O   0  0  0  0  0  0  0  0  0  0  0  0
   20.4662   26.8777   55.0560 C   0  0  1  0  0  0  0  0  0  0  0  0
   19.8977   26.7767   56.1838 C   0  0  0  0  0  0  0  0  0  0  0  0
   20.4106   25.7552   54.0986 C   0  0  0  0  0  0  0  0  0  0  0  0
   19.9152   24.5494   54.6359 C   0  0  0  0  0  0  0  0  0  0  0  0
   19.4409   25.5728   56.7587 C   0  0  1  0  0  0  0  0  0  0  0  0
   19.5864   24.3908   55.9492 C   0  0  0  0  0  0  0  0  0  0  0  0
   18.8530   25.4475   58.2255 C   0  0  0  0  0  0  0  0  0  0  0  0
   19.9718   25.4644   59.2147 C   0  0  1  0  0  0  0  0  0  0  0  0
   19.7861   26.2245   60.2591 N   0  0  0  0  0  0  0  0  0  0  0  0
   20.4427   26.3420   61.3360 C   0  0  0  0  0  0  0  0  0  0  0  0
   20.2169   24.1648   59.8285 C   0  0  2  0  0  0  0  0  0  0  0  0
   21.0115   24.0837   61.0679 N   0  0  0  0  0  0  0  0  0  0  0  0
   20.2221   22.9293   59.0941 N   0  0  0  0  0  0  0  0  0  0  0  0
   20.9060   25.0849   61.8682 C   0  0  0  0  0  0  0  0  0  0  0  0
   20.7473   21.8827   59.7388 C   0  0  2  0  0  0  0  0  0  0  0  0
   21.4444   22.6390   61.1277 C   0  0  0  0  0  0  0  0  0  0  0  0
   22.4298   22.4096   61.7288 N   0  0  0  0  0  0  0  0  0  0  0  0
   21.5193   21.1843   58.7766 C   0  0  0  0  0  0  0  0  0  0  0  0
   20.4498   20.8134   57.7972 C   0  0  2  0  0  0  0  0  0  0  0  0
   20.8237   20.3868   56.5445 C   0  0  0  0  0  0  0  0  0  0  0  0
   19.6631   22.4315   57.8670 C   0  0  0  0  0  0  0  0  0  0  0  0
   22.0560   20.4880   56.1444 N   0  0  0  0  0  0  0  0  0  0  0  0
   19.9512   19.4334   56.0681 C   0  0  0  0  0  0  0  0  0  0  0  0
   20.4367   19.1328   54.6741 C   0  0  0  0  0  0  0  0  0  0  0  0
   21.5992   19.7003   54.2715 C   0  0  0  0  0  0  0  0  0  0  0  0
   22.3655   20.3194   54.8617 C   0  0  0  0  0  0  0  0  0  0  0  0
  2  1  1  6
  2  3  1  0
  2  4  1  0
  4  5  1  0
  3  6  1  0
  5  7  1  0
  6  7  1  0
  6  8  1  1
  9  8  1  6
  9 10  1  0
 10 11  1  0
  9 12  1  0
 12 13  1  0
 12 14  1  6
 11 15  1  0
 13 15  1  0
 14 16  1  0
 13 17  1  0
 16 17  1  0
 17 18  2  0
 16 19  1  6
 19 20  1  0
 20 21  1  6
 14 22  1  0
 20 22  1  0
 21 23  1  0
 21 24  2  0
 24 25  1  0
 25 26  2  0
 23 27  2  0
 26 27  1  0
M  END
$$$$
75
     RDKit          3D

 27 29  0  0  0  0  0  0  0  0999 V2000
   18.2775   19.5347   54.8773 C   0  0  2  0  0  0  0  0  0  0  0  0
   18.7461   19.5031   56.1516 C   0  0  0  0  0  0  0  0  0  0  0  0
   20.0785   19.8313   56.5935 C   0  0  1  0  0  0  0  0  0  0  0  0
   17.0006   19.2480   54.5658 N   0  0  0  0  0  0  0  0  0  0  0  0
   19.3056   19.7406   53.8727 N   0  0  0  0  0  0  0  0  0  0  0  0
   20.9560   20.1853   55.5551 C   0  0  1  0  0  0  0  0  0  0  0  0
   20.6584   20.2557   57.9049 C   0  0  0  0  0  0  0  0  0  0  0  0
   21.6802   20.6672   58.1403 N   0  0  0  0  0  0  0  0  0  0  0  0
   22.2793   20.5385   55.8476 N   0  0  0  0  0  0  0  0  0  0  0  0
   22.0567   20.9246   59.5237 C   0  0  0  0  0  0  0  0  0  0  0  0
   20.4698   20.0412   54.2237 C   0  0  0  0  0  0  0  0  0  0  0  0
   22.7013   20.4874   57.0760 C   0  0  0  0  0  0  0  0  0  0  0  0
   21.0793   22.1116   59.8024 O   0  0  0  0  0  0  0  0  0  0  0  0
   21.1646   22.8711   60.8327 C   0  0  1  0  0  0  0  0  0  0  0  0
   20.0442   23.4783   61.2920 C   0  0  2  0  0  0  0  0  0  0  0  0
   19.7799   24.5238   60.3172 O   0  0  0  0  0  0  0  0  0  0  0  0
   22.0714   22.3727   61.9418 C   0  0  0  0  0  0  0  0  0  0  0  0
   20.3795   24.2284   62.5684 C   0  0  2  0  0  0  0  0  0  0  0  0
   19.1015   24.4056   59.1644 C   0  0  0  0  0  0  0  0  0  0  0  0
   20.9626   25.4855   62.3587 C   0  0  0  0  0  0  0  0  0  0  0  0
   21.3391   26.0925   63.6432 O   0  0  0  0  0  0  0  0  0  0  0  0
   21.3590   23.1005   63.1389 O   0  0  0  0  0  0  0  0  0  0  0  0
   19.7575   24.9595   57.9474 C   0  0  0  0  0  0  0  0  0  0  0  0
   19.2760   26.1009   57.5186 O   0  0  0  0  0  0  0  0  0  0  0  0
   20.0766   27.1279   56.8434 C   0  0  0  0  0  0  0  0  0  0  0  0
   20.0003   27.0977   55.4019 C   0  0  0  0  0  0  0  0  0  0  0  0
   21.1605   27.3580   54.7999 O   0  0  0  0  0  0  0  0  0  0  0  0
  1  2  1  0
  3  2  1  6
  1  4  1  6
  1  5  1  0
  3  6  1  0
  3  7  1  0
  7  8  1  0
  6  9  1  0
  8 10  1  0
  5 11  1  0
  6 11  1  6
  8 12  1  0
  9 12  1  0
 10 13  1  0
 14 13  1  6
 14 15  1  0
 15 16  1  6
 14 17  1  0
 15 18  1  0
 16 19  1  0
 18 20  1  6
 20 21  1  0
 17 22  1  0
 18 22  1  0
 19 23  1  0
 23 24  1  0
 24 25  1  0
 25 26  1  0
 26 27  1  0
M  END
$$$$
76
     RDKit          3D

 27 29  0  0  0  0  0  0  0  0999 V2000
   22.7259   22.3005   60.7365 N   0  0  0  0  0  0  0  0  0  0  0  0
   22.1301   22.2518   61.8823 C   0  0  0  0  0  0  0  0  0  0  0  0
   21.9282   21.7372   59.6391 C   0  0  0  0  0  0  0  0  0  0  0  0
   21.4552   20.5691   59.6247 N   0  0  0  0  0  0  0  0  0  0  0  0
   21.9316   23.5735   62.4758 C   0  0  0  0  0  0  0  0  0  0  0  0
   20.5944   24.2186   62.0495 C   0  0  0  0  0  0  0  0  0  0  0  0
   20.9758   19.9301   58.5457 C   0  0  0  0  0  0  0  0  0  0  0  0
   20.4006   20.6175   57.5970 C   0  0  0  0  0  0  0  0  0  0  0  0
   20.1420   19.9870   56.2062 C   0  0  1  0  0  0  0  0  0  0  0  0
   21.1650   20.1492   55.2628 C   0  0  2  0  0  0  0  0  0  0  0  0
   20.4161   25.5438   62.5734 N   0  0  0  0  0  0  0  0  0  0  0  0
   19.8087   23.6441   61.3693 O   0  0  0  0  0  0  0  0  0  0  0  0
   19.5333   26.4040   62.1432 C   0  0  0  0  0  0  0  0  0  0  0  0
   19.2606   27.4225   63.1037 C   0  0  0  0  0  0  0  0  0  0  0  0
   20.0336   27.3652   64.2770 C   0  0  2  0  0  0  0  0  0  0  0  0
   20.2583   28.0771   65.3785 N   0  0  0  0  0  0  0  0  0  0  0  0
   20.8063   26.0333   63.8882 C   0  0  0  0  0  0  0  0  0  0  0  0
   21.4306   28.1527   65.9107 C   0  0  0  0  0  0  0  0  0  0  0  0
   21.3128   22.7842   58.8231 N   0  0  0  0  0  0  0  0  0  0  0  0
   18.9372   19.2700   56.0533 C   0  0  0  0  0  0  0  0  0  0  0  0
   19.9936   22.0767   57.8519 C   0  0  0  0  0  0  0  0  0  0  0  0
   21.7624   29.0997   66.7853 N   0  0  0  0  0  0  0  0  0  0  0  0
   22.0220   26.8301   66.3556 N   0  0  0  0  0  0  0  0  0  0  0  0
   18.5957   18.8657   54.7542 C   0  0  0  0  0  0  0  0  0  0  0  0
   22.3253   20.8251   55.3403 N   0  0  0  0  0  0  0  0  0  0  0  0
   19.5896   19.3117   53.7618 C   0  0  0  0  0  0  0  0  0  0  0  0
   20.7294   19.7371   53.9847 N   0  0  0  0  0  0  0  0  0  0  0  0
  1  2  1  0
  1  3  1  0
  3  4  2  0
  2  5  1  0
  5  6  1  0
  4  7  1  0
  7  8  1  0
  9  8  1  1
  9 10  1  0
  6 11  1  0
  6 12  2  0
 11 13  1  0
 13 14  1  0
 14 15  1  0
 15 16  1  6
 11 17  1  0
 15 17  1  0
 16 18  1  0
  3 19  1  0
  9 20  1  0
  8 21  1  0
 19 21  1  0
 18 22  1  0
 18 23  1  0
 20 24  1  0
 10 25  1  6
 24 26  1  0
 10 27  1  0
 26 27  1  0
M  END
$$$$
77
     RDKit          3D

 27 30  0  0  0  0  0  0  0  0999 V2000
   22.5907   21.9797   60.8425 N   0  0  0  0  0  0  0  0  0  0  0  0
   21.9092   22.1300   62.0302 C   0  0  0  0  0  0  0  0  0  0  0  0
   21.8010   22.0921   59.7152 C   0  0  1  0  0  0  0  0  0  0  0  0
   21.3144   20.9418   59.1642 C   0  0  0  0  0  0  0  0  0  0  0  0
   21.0536   23.3588   59.6277 C   0  0  1  0  0  0  0  0  0  0  0  0
   20.4167   23.7755   58.5426 N   0  0  0  0  0  0  0  0  0  0  0  0
   20.1666   21.0164   58.1868 C   0  0  2  0  0  0  0  0  0  0  0  0
   20.0557   23.2355   60.9003 C   0  0  0  0  0  0  0  0  0  0  0  0
   19.8071   20.0411   57.2926 C   0  0  0  0  0  0  0  0  0  0  0  0
   20.9601   23.2125   62.1434 C   0  0  0  0  0  0  0  0  0  0  0  0
   19.8825   24.9504   58.1725 C   0  0  0  0  0  0  0  0  0  0  0  0
   20.6543   23.8708   63.2201 C   0  0  0  0  0  0  0  0  0  0  0  0
   18.7347   19.9662   56.5805 C   0  0  0  0  0  0  0  0  0  0  0  0
   19.9339   25.0678   63.1650 C   0  0  0  0  0  0  0  0  0  0  0  0
   20.4146   26.1674   63.7003 C   0  0  0  0  0  0  0  0  0  0  0  0
   20.3061   22.3874   57.4420 C   0  0  0  0  0  0  0  0  0  0  0  0
   21.7308   26.2439   64.2456 C   0  0  0  0  0  0  0  0  0  0  0  0
   21.2138   23.4134   64.4522 C   0  0  0  0  0  0  0  0  0  0  0  0
   20.2641   25.6072   57.1606 N   0  0  0  0  0  0  0  0  0  0  0  0
   18.9643   25.4823   58.9999 N   0  0  0  0  0  0  0  0  0  0  0  0
   18.8163   19.4494   55.1922 C   0  0  0  0  0  0  0  0  0  0  0  0
   19.6902   26.6349   56.6672 C   0  0  2  0  0  0  0  0  0  0  0  0
   18.4352   26.6548   58.7104 C   0  0  0  0  0  0  0  0  0  0  0  0
   20.0985   27.2635   55.5053 N   0  0  0  0  0  0  0  0  0  0  0  0
   18.7883   27.3190   57.5656 C   0  0  0  0  0  0  0  0  0  0  0  0
   21.7774   24.7434   65.1710 C   0  0  0  0  0  0  0  0  0  0  0  0
   20.7145   26.7185   54.4607 C   0  0  0  0  0  0  0  0  0  0  0  0
  1  2  1  0
  1  3  1  0
  3  4  1  1
  3  5  1  0
  5  6  1  0
  4  7  1  0
  5  8  1  1
  7  9  1  6
  2 10  1  0
  8 10  1  0
  6 11  1  0
 10 12  2  3
  9 13  1  0
 12 14  1  0
 14 15  1  0
  6 16  1  0
  7 16  1  0
 15 17  1  0
 12 18  1  0
 11 19  1  0
 11 20  2  0
 13 21  1  0
 19 22  1  0
 20 23  1  0
 22 24  1  1
 22 25  1  0
 23 25  1  0
 17 26  1  0
 18 26  1  0
 24 27  1  0
M  END
$$$$
78
     RDKit          3D

 27 30  0  0  0  0  0  0  0  0999 V2000
   22.7288   21.9193   61.8949 N   0  0  0  0  0  0  0  0  0  0  0  0
   21.9062   22.3403   61.0011 C   0  0  1  0  0  0  0  0  0  0  0  0
   21.6678   21.5785   59.9081 N   0  0  0  0  0  0  0  0  0  0  0  0
   20.6643   21.9393   58.9838 C   0  0  2  0  0  0  0  0  0  0  0  0
   20.5470   22.9899   61.2544 C   0  0  1  0  0  0  0  0  0  0  0  0
   20.4520   24.0816   62.0004 N   0  0  0  0  0  0  0  0  0  0  0  0
   20.0203   23.1077   59.8583 N   0  0  0  0  0  0  0  0  0  0  0  0
   19.9885   21.7013   58.0082 C   0  0  1  0  0  0  0  0  0  0  0  0
   19.0964   23.8583   59.2464 C   0  0  0  0  0  0  0  0  0  0  0  0
   20.7660   24.1420   63.2957 C   0  0  0  0  0  0  0  0  0  0  0  0
   19.0727   22.5285   57.5179 C   0  0  0  0  0  0  0  0  0  0  0  0
   18.6549   23.5356   58.1506 N   0  0  0  0  0  0  0  0  0  0  0  0
   20.3701   20.3885   57.2233 C   0  0  2  0  0  0  0  0  0  0  0  0
   21.2146   23.1533   63.9903 O   0  0  0  0  0  0  0  0  0  0  0  0
   21.5298   20.4791   56.5481 C   0  0  0  0  0  0  0  0  0  0  0  0
   20.5911   25.3360   64.1832 C   0  0  1  0  0  0  0  0  0  0  0  0
   21.7107   19.5822   55.4589 C   0  0  0  0  0  0  0  0  0  0  0  0
   19.2824   19.4766   57.0931 C   0  0  2  0  0  0  0  0  0  0  0  0
   18.1797   19.3765   57.8735 F   0  0  0  0  0  0  0  0  0  0  0  0
   19.4422   18.4633   56.1262 C   0  0  0  0  0  0  0  0  0  0  0  0
   20.6401   18.6505   55.1663 C   0  0  0  0  0  0  0  0  0  0  0  0
   21.1675   25.5124   65.3620 C   0  0  0  0  0  0  0  0  0  0  0  0
   21.0403   26.8053   65.9666 C   0  0  1  0  0  0  0  0  0  0  0  0
   19.8128   26.4225   63.6142 C   0  0  0  0  0  0  0  0  0  0  0  0
   21.7402   27.1262   67.2646 C   0  0  0  0  0  0  0  0  0  0  0  0
   20.5111   27.8374   65.1434 C   0  0  0  0  0  0  0  0  0  0  0  0
   19.7945   27.5764   64.1169 C   0  0  0  0  0  0  0  0  0  0  0  0
  2  1  1  1
  2  3  1  0
  4  3  1  1
  2  5  1  0
  5  6  1  6
  4  7  1  0
  5  7  1  0
  4  8  1  0
  7  9  1  0
  6 10  1  0
  8 11  1  6
  9 12  1  0
 11 12  1  0
  8 13  1  0
 10 14  2  0
 13 15  1  6
 16 10  1  6
 15 17  1  0
 13 18  1  0
 18 19  1  1
 18 20  1  0
 17 21  1  0
 20 21  1  0
 16 22  1  0
 22 23  1  0
 16 24  1  0
 23 25  1  6
 23 26  1  0
 24 27  1  0
 26 27  1  0
M  END
$$$$
79
     RDKit          3D

 27 31  0  0  0  0  0  0  0  0999 V2000
   21.0347   27.9269   54.5582 O   0  0  0  0  0  0  0  0  0  0  0  0
   20.4662   26.8777   55.0560 C   0  0  1  0  0  0  0  0  0  0  0  0
   19.8977   26.7767   56.1838 C   0  0  0  0  0  0  0  0  0  0  0  0
   20.4106   25.7552   54.0986 C   0  0  0  0  0  0  0  0  0  0  0  0
   19.9152   24.5494   54.6359 C   0  0  0  0  0  0  0  0  0  0  0  0
   19.4409   25.5728   56.7587 C   0  0  1  0  0  0  0  0  0  0  0  0
   19.5864   24.3908   55.9492 C   0  0  0  0  0  0  0  0  0  0  0  0
   18.8530   25.4475   58.2255 C   0  0  0  0  0  0  0  0  0  0  0  0
   19.9718   25.4644   59.2147 C   0  0  1  0  0  0  0  0  0  0  0  0
   19.7861   26.2245   60.2591 N   0  0  0  0  0  0  0  0  0  0  0  0
   20.4427   26.3420   61.3360 C   0  0  0  0  0  0  0  0  0  0  0  0
   20.2169   24.1648   59.8285 C   0  0  2  0  0  0  0  0  0  0  0  0
   21.0115   24.0837   61.0679 N   0  0  0  0  0  0  0  0  0  0  0  0
   20.2221   22.9293   59.0941 N   0  0  0  0  0  0  0  0  0  0  0  0
   20.9060   25.0849   61.8682 C   0  0  0  0  0  0  0  0  0  0  0  0
   20.7473   21.8827   59.7388 C   0  0  2  0  0  0  0  0  0  0  0  0
   21.4444   22.6390   61.1277 C   0  0  0  0  0  0  0  0  0  0  0  0
   22.4298   22.4096   61.7288 N   0  0  0  0  0  0  0  0  0  0  0  0
   21.5193   21.1843   58.7766 C   0  0  0  0  0  0  0  0  0  0  0  0
   20.4498   20.8134   57.7972 C   0  0  2  0  0  0  0  0  0  0  0  0
   20.8237   20.3868   56.5445 C   0  0  0  0  0  0  0  0  0  0  0  0
   19.6631   22.4315   57.8670 C   0  0  0  0  0  0  0  0  0  0  0  0
   22.0560   20.4880   56.1444 N   0  0  0  0  0  0  0  0  0  0  0  0
   19.9512   19.4334   56.0681 C   0  0  0  0  0  0  0  0  0  0  0  0
   20.4367   19.1328   54.6741 C   0  0  1  0  0  0  0  0  0  0  0  0
   19.4337   18.7823   53.7104 O   0  0  0  0  0  0  0  0  0  0  0  0
   21.8058   19.8887   54.6816 C   0  0  0  0  0  0  0  0  0  0  0  0
  2  1  1  6
  2  3  1  0
  2  4  1  0
  4  5  1  0
  3  6  1  0
  5  7  1  0
  6  7  1  0
  6  8  1  1
  9  8  1  6
  9 10  1  0
 10 11  1  0
  9 12  1  0
 12 13  1  0
 12 14  1  6
 11 15  1  0
 13 15  1  0
 14 16  1  0
 13 17  1  0
 16 17  1  0
 17 18  2  0
 16 19  1  6
 19 20  1  0
 20 21  1  6
 14 22  1  0
 20 22  1  0
 21 23  1  0
 21 24  2  0
 24 25  1  0
 25 26  1  6
 23 27  2  0
 25 27  1  0
M  END
$$$$
8
     RDKit          3D

 12 13  0  0  0  0  0  0  0  0999 V2000
   21.6735   21.3283   62.8232 N   0  0  0  0  0  0  0  0  0  0  0  0
   20.5482   21.6098   63.3621 C   0  0  0  0  0  0  0  0  0  0  0  0
   19.7433   22.6344   62.7637 C   0  0  1  0  0  0  0  0  0  0  0  0
   19.8495   21.1025   64.5204 C   0  0  0  0  0  0  0  0  0  0  0  0
   22.0504   21.9574   61.6831 C   0  0  0  0  0  0  0  0  0  0  0  0
   18.5793   23.0550   63.4036 O   0  0  0  0  0  0  0  0  0  0  0  0
   20.2537   23.4475   61.8412 C   0  0  0  0  0  0  0  0  0  0  0  0
   21.5253   22.8116   61.1071 C   0  0  2  0  0  0  0  0  0  0  0  0
   18.3753   22.3983   64.6315 C   0  0  1  0  0  0  0  0  0  0  0  0
   21.8135   23.3483   59.7642 N   0  0  0  0  0  0  0  0  0  0  0  0
   17.2238   22.9361   65.2382 C   0  0  0  0  0  0  0  0  0  0  0  0
   18.8531   21.4175   65.1354 C   0  0  0  0  0  0  0  0  0  0  0  0
  1  2  1  0
  2  3  1  0
  2  4  1  0
  1  5  1  0
  3  6  1  0
  3  7  1  1
  5  8  1  0
  7  8  1  0
  6  9  1  0
  8 10  1  6
  9 11  1  6
  4 12  1  0
  9 12  1  0
M  END
$$$$
80
     RDKit          3D

 27 31  0  0  0  0  0  0  0  0999 V2000
   22.7754   22.2595   60.9306 N   0  0  0  0  0  0  0  0  0  0  0  0
   22.1136   22.1943   62.1222 C   0  0  0  0  0  0  0  0  0  0  0  0
   21.8756   21.9244   59.8361 C   0  0  0  0  0  0  0  0  0  0  0  0
   20.7388   22.9248   59.8233 C   0  0  2  0  0  0  0  0  0  0  0  0
   19.8835   22.8759   58.7440 C   0  0  0  0  0  0  0  0  0  0  0  0
   21.3247   24.2411   60.1694 O   0  0  0  0  0  0  0  0  0  0  0  0
   19.1096   23.9262   58.4698 O   0  0  0  0  0  0  0  0  0  0  0  0
   20.8685   23.1114   62.1794 C   0  0  2  0  0  0  0  0  0  0  0  0
   19.9132   22.8237   61.1891 C   0  0  0  0  0  0  0  0  0  0  0  0
   21.2708   24.4876   62.3770 N   0  0  0  0  0  0  0  0  0  0  0  0
   21.1284   25.1259   63.5529 C   0  0  0  0  0  0  0  0  0  0  0  0
   20.1271   22.0429   57.7633 N   0  0  0  0  0  0  0  0  0  0  0  0
   20.8440   25.1716   61.1453 C   0  0  0  0  0  0  0  0  0  0  0  0
   21.0636   20.9752   57.9886 C   0  0  0  0  0  0  0  0  0  0  0  0
   20.7547   26.3829   63.6161 N   0  0  0  0  0  0  0  0  0  0  0  0
   21.9136   21.0631   58.9820 C   0  0  0  0  0  0  0  0  0  0  0  0
   21.4053   24.5006   64.6544 N   0  0  0  0  0  0  0  0  0  0  0  0
   21.0624   20.0239   56.8917 C   0  0  0  0  0  0  0  0  0  0  0  0
   19.8645   19.4623   56.4339 C   0  0  0  0  0  0  0  0  0  0  0  0
   21.2708   25.2295   65.8728 C   0  0  0  0  0  0  0  0  0  0  0  0
   19.2305   20.1291   55.4181 N   0  0  0  0  0  0  0  0  0  0  0  0
   20.9681   26.5464   65.8868 C   0  0  0  0  0  0  0  0  0  0  0  0
   20.6195   27.0807   64.8210 C   0  0  0  0  0  0  0  0  0  0  0  0
   19.7275   20.9310   54.4793 C   0  0  0  0  0  0  0  0  0  0  0  0
   21.0495   21.1638   54.4581 C   0  0  0  0  0  0  0  0  0  0  0  0
   18.0699   19.2980   54.8925 C   0  0  0  0  0  0  0  0  0  0  0  0
   21.8164   20.9243   55.6623 C   0  0  0  0  0  0  0  0  0  0  0  0
  1  2  1  0
  1  3  1  0
  3  4  1  0
  4  5  1  0
  4  6  1  1
  5  7  2  0
  8  2  1  6
  4  9  1  0
  8  9  1  0
  8 10  1  0
 10 11  1  0
  5 12  1  0
  6 13  1  0
 10 13  1  0
 12 14  1  0
 11 15  1  0
  3 16  2  0
 14 16  1  0
 11 17  2  0
 14 18  2  3
 18 19  1  0
 17 20  1  0
 19 21  1  0
 20 22  1  0
 15 23  1  0
 22 23  1  0
 21 24  1  0
 24 25  1  0
 21 26  1  0
 18 27  1  0
 25 27  2  0
M  END
$$$$
81
     RDKit          3D

 27 31  0  0  0  0  0  0  0  0999 V2000
   21.0347   27.9269   54.5582 O   0  0  0  0  0  0  0  0  0  0  0  0
   20.4662   26.8777   55.0560 C   0  0  1  0  0  0  0  0  0  0  0  0
   19.8977   26.7767   56.1838 C   0  0  0  0  0  0  0  0  0  0  0  0
   20.4106   25.7552   54.0986 C   0  0  0  0  0  0  0  0  0  0  0  0
   19.9152   24.5494   54.6359 C   0  0  0  0  0  0  0  0  0  0  0  0
   19.4409   25.5728   56.7587 C   0  0  1  0  0  0  0  0  0  0  0  0
   19.5864   24.3908   55.9492 C   0  0  0  0  0  0  0  0  0  0  0  0
   18.8530   25.4475   58.2255 C   0  0  0  0  0  0  0  0  0  0  0  0
   19.9718   25.4644   59.2147 C   0  0  1  0  0  0  0  0  0  0  0  0
   19.7861   26.2245   60.2591 N   0  0  0  0  0  0  0  0  0  0  0  0
   20.4427   26.3420   61.3360 C   0  0  0  0  0  0  0  0  0  0  0  0
   20.2169   24.1648   59.8285 C   0  0  2  0  0  0  0  0  0  0  0  0
   21.0115   24.0837   61.0679 N   0  0  0  0  0  0  0  0  0  0  0  0
   20.2221   22.9293   59.0941 N   0  0  0  0  0  0  0  0  0  0  0  0
   20.9060   25.0849   61.8682 C   0  0  0  0  0  0  0  0  0  0  0  0
   20.7473   21.8827   59.7388 C   0  0  2  0  0  0  0  0  0  0  0  0
   21.4444   22.6390   61.1277 C   0  0  0  0  0  0  0  0  0  0  0  0
   22.4298   22.4096   61.7288 N   0  0  0  0  0  0  0  0  0  0  0  0
   21.5193   21.1843   58.7766 C   0  0  0  0  0  0  0  0  0  0  0  0
   20.4498   20.8134   57.7972 C   0  0  2  0  0  0  0  0  0  0  0  0
   20.8237   20.3868   56.5445 C   0  0  0  0  0  0  0  0  0  0  0  0
   19.6631   22.4315   57.8670 C   0  0  0  0  0  0  0  0  0  0  0  0
   22.0560   20.4880   56.1444 N   0  0  0  0  0  0  0  0  0  0  0  0
   19.9512   19.4334   56.0681 C   0  0  0  0  0  0  0  0  0  0  0  0
   20.4367   19.1328   54.6741 C   0  0  1  0  0  0  0  0  0  0  0  0
   19.4337   18.7823   53.7104 O   0  0  0  0  0  0  0  0  0  0  0  0
   21.8058   19.8887   54.6816 C   0  0  0  0  0  0  0  0  0  0  0  0
  2  1  1  6
  2  3  1  0
  2  4  1  0
  4  5  1  0
  3  6  1  0
  5  7  1  0
  6  7  1  0
  6  8  1  1
  9  8  1  6
  9 10  1  0
 10 11  1  0
  9 12  1  0
 12 13  1  0
 12 14  1  6
 11 15  1  0
 13 15  1  0
 14 16  1  0
 13 17  1  0
 16 17  1  0
 17 18  2  0
 16 19  1  6
 19 20  1  0
 20 21  1  6
 14 22  1  0
 20 22  1  0
 21 23  1  0
 21 24  2  0
 24 25  1  0
 25 26  1  6
 23 27  1  0
 25 27  1  0
M  END
$$$$
82
     RDKit          3D

 27 29  0  0  0  0  0  0  0  0999 V2000
   21.2919   27.4777   55.0776 O   0  0  0  0  0  0  0  0  0  0  0  0
   20.1607   27.1302   54.9562 C   0  0  0  0  0  0  0  0  0  0  0  0
   19.6906   26.2687   56.1017 C   0  0  0  0  0  0  0  0  0  0  0  0
   19.4648   26.8789   53.8509 N   0  0  0  0  0  0  0  0  0  0  0  0
   19.6587   27.3812   52.6290 C   0  0  0  0  0  0  0  0  0  0  0  0
   19.7660   28.7790   52.5744 O   0  0  0  0  0  0  0  0  0  0  0  0
   19.1436   26.8257   51.3600 C   0  0  0  0  0  0  0  0  0  0  0  0
   20.5077   25.8695   57.0961 N   0  0  0  0  0  0  0  0  0  0  0  0
   18.3984   26.0578   56.2138 O   0  0  0  0  0  0  0  0  0  0  0  0
   19.9559   25.0966   58.0701 C   0  0  2  0  0  0  0  0  0  0  0  0
   20.0840   25.5977   59.4127 C   0  0  1  0  0  0  0  0  0  0  0  0
   20.6370   23.7457   58.0146 C   0  0  2  0  0  0  0  0  0  0  0  0
   20.1269   22.8494   56.9730 N   0  0  0  0  0  0  0  0  0  0  0  0
   20.7784   21.4349   57.0380 C   0  0  0  0  0  0  0  0  0  0  0  0
   20.5874   20.6656   55.9164 C   0  0  0  0  0  0  0  0  0  0  0  0
   20.3223   23.0077   59.3566 C   0  0  2  0  0  0  0  0  0  0  0  0
   19.1882   26.5196   59.9345 C   0  0  0  0  0  0  0  0  0  0  0  0
   19.4951   19.7188   55.9872 C   0  0  0  0  0  0  0  0  0  0  0  0
   21.8745   19.7997   55.6651 C   0  0  0  0  0  0  0  0  0  0  0  0
   20.0598   24.3538   60.3539 C   0  0  1  0  0  0  0  0  0  0  0  0
   21.2627   22.0341   59.7582 C   0  0  1  0  0  0  0  0  0  0  0  0
   21.4874   21.9404   61.1593 C   0  0  2  0  0  0  0  0  0  0  0  0
   21.3180   23.1217   61.9699 C   0  0  2  0  0  0  0  0  0  0  0  0
   20.0310   24.1288   61.5839 C   0  0  0  0  0  0  0  0  0  0  0  0
   21.0824   21.0523   58.4039 C   0  0  0  0  0  0  0  0  0  0  0  0
   22.8738   21.4732   61.4829 O   0  0  0  0  0  0  0  0  0  0  0  0
   22.4106   24.1513   61.9375 O   0  0  0  0  0  0  0  0  0  0  0  0
  1  2  2  0
  2  3  1  0
  2  4  1  0
  4  5  1  0
  5  6  2  0
  5  7  1  0
  3  8  1  0
  3  9  2  0
 10  8  1  6
 10 11  1  0
 10 12  1  0
 12 13  1  6
 13 14  1  0
 14 15  1  0
 16 12  1  6
 11 17  1  1
 15 18  1  0
 15 19  1  0
 11 20  1  0
 16 20  1  0
 16 21  1  0
 21 22  1  0
 22 23  1  0
 20 24  1  1
 23 24  1  0
 14 25  2  0
 21 25  1  1
 22 26  1  6
 23 27  1  6
M  END
$$$$
83
     RDKit          3D

 27 29  0  0  0  0  0  0  0  0999 V2000
   20.1989   20.7786   64.0831 C   0  0  0  0  0  0  0  0  0  0  0  0
   20.7543   21.7693   63.2682 C   0  0  2  0  0  0  0  0  0  0  0  0
   20.0238   22.9097   63.0990 C   0  0  2  0  0  0  0  0  0  0  0  0
   21.1528   21.2813   61.8709 O   0  0  0  0  0  0  0  0  0  0  0  0
   21.8045   22.1747   61.0494 C   0  0  0  0  0  0  0  0  0  0  0  0
   20.6180   24.1339   62.5762 C   0  0  0  0  0  0  0  0  0  0  0  0
   21.7031   24.6415   63.3411 O   0  0  0  0  0  0  0  0  0  0  0  0
   18.9524   21.2772   64.5651 C   0  0  0  0  0  0  0  0  0  0  0  0
   21.2729   25.9702   63.8127 C   0  0  0  0  0  0  0  0  0  0  0  0
   21.5370   26.3165   65.1086 C   0  0  0  0  0  0  0  0  0  0  0  0
   21.9739   21.5190   59.7072 C   0  0  0  0  0  0  0  0  0  0  0  0
   20.3847   24.6472   61.3719 O   0  0  0  0  0  0  0  0  0  0  0  0
   21.1830   20.4316   59.6191 O   0  0  0  0  0  0  0  0  0  0  0  0
   20.9785   20.1305   58.2427 C   0  0  1  0  0  0  0  0  0  0  0  0
   18.7794   23.1464   63.6970 C   0  0  0  0  0  0  0  0  0  0  0  0
   18.3731   22.3174   64.5436 C   0  0  0  0  0  0  0  0  0  0  0  0
   21.8858   25.3812   66.0746 C   0  0  0  0  0  0  0  0  0  0  0  0
   21.3002   27.6277   65.6494 C   0  0  0  0  0  0  0  0  0  0  0  0
   22.1204   25.6355   67.4697 C   0  0  0  0  0  0  0  0  0  0  0  0
   21.9550   26.9891   67.8820 C   0  0  0  0  0  0  0  0  0  0  0  0
   21.5407   27.8937   67.0249 C   0  0  0  0  0  0  0  0  0  0  0  0
   19.6289   20.1764   57.7977 C   0  0  0  0  0  0  0  0  0  0  0  0
   19.3566   20.1323   56.4172 C   0  0  1  0  0  0  0  0  0  0  0  0
   20.4239   20.1442   55.5731 C   0  0  0  0  0  0  0  0  0  0  0  0
   21.9650   20.1175   57.3044 C   0  0  0  0  0  0  0  0  0  0  0  0
   21.6862   20.1235   55.9588 C   0  0  0  0  0  0  0  0  0  0  0  0
   17.9721   19.9132   55.9000 N   0  0  0  0  0  0  0  0  0  0  0  0
  1  2  1  0
  2  3  1  0
  2  4  1  6
  4  5  1  0
  3  6  1  1
  6  7  1  0
  1  8  1  0
  7  9  1  0
  9 10  1  0
  5 11  1  0
  6 12  2  0
 11 13  1  0
 14 13  1  1
  3 15  1  0
  8 16  1  0
 15 16  1  0
 10 17  1  0
 10 18  1  0
 17 19  1  0
 19 20  1  0
 18 21  1  0
 20 21  1  0
 14 22  1  0
 22 23  1  0
 23 24  1  0
 14 25  1  0
 24 26  1  0
 25 26  1  0
 23 27  1  1
M  END
$$$$
84
     RDKit          3D

 28 31  0  0  0  0  0  0  0  0999 V2000
   22.5907   21.9797   60.8425 N   0  0  0  0  0  0  0  0  0  0  0  0
   21.9092   22.1300   62.0302 C   0  0  0  0  0  0  0  0  0  0  0  0
   21.8010   22.0921   59.7152 C   0  0  1  0  0  0  0  0  0  0  0  0
   21.3144   20.9418   59.1642 C   0  0  0  0  0  0  0  0  0  0  0  0
   21.0536   23.3588   59.6277 C   0  0  1  0  0  0  0  0  0  0  0  0
   20.4167   23.7755   58.5426 N   0  0  0  0  0  0  0  0  0  0  0  0
   20.1666   21.0164   58.1868 C   0  0  2  0  0  0  0  0  0  0  0  0
   20.0557   23.2355   60.9003 C   0  0  0  0  0  0  0  0  0  0  0  0
   19.8071   20.0411   57.2926 C   0  0  0  0  0  0  0  0  0  0  0  0
   20.9601   23.2125   62.1434 C   0  0  0  0  0  0  0  0  0  0  0  0
   19.8825   24.9504   58.1725 C   0  0  0  0  0  0  0  0  0  0  0  0
   20.6543   23.8708   63.2201 C   0  0  0  0  0  0  0  0  0  0  0  0
   18.7347   19.9662   56.5805 C   0  0  0  0  0  0  0  0  0  0  0  0
   19.9339   25.0678   63.1650 C   0  0  0  0  0  0  0  0  0  0  0  0
   20.4146   26.1674   63.7003 C   0  0  0  0  0  0  0  0  0  0  0  0
   20.3061   22.3874   57.4420 C   0  0  0  0  0  0  0  0  0  0  0  0
   21.7308   26.2439   64.2456 C   0  0  0  0  0  0  0  0  0  0  0  0
   21.2138   23.4134   64.4522 C   0  0  0  0  0  0  0  0  0  0  0  0
   20.2641   25.6072   57.1606 N   0  0  0  0  0  0  0  0  0  0  0  0
   18.9643   25.4823   58.9999 N   0  0  0  0  0  0  0  0  0  0  0  0
   18.8163   19.4494   55.1922 C   0  0  0  0  0  0  0  0  0  0  0  0
   19.6902   26.6349   56.6672 C   0  0  2  0  0  0  0  0  0  0  0  0
   18.4352   26.6548   58.7104 C   0  0  0  0  0  0  0  0  0  0  0  0
   20.0985   27.2635   55.5053 N   0  0  0  0  0  0  0  0  0  0  0  0
   18.7883   27.3190   57.5656 C   0  0  0  0  0  0  0  0  0  0  0  0
   21.8503   27.2780   65.3721 C   0  0  0  0  0  0  0  0  0  0  0  0
   21.2812   27.0320   54.9534 O   0  0  0  0  0  0  0  0  0  0  0  0
   21.6367   24.6039   65.3120 C   0  0  0  0  0  0  0  0  0  0  0  0
  1  2  1  0
  1  3  1  0
  3  4  1  1
  3  5  1  0
  5  6  1  0
  4  7  1  0
  5  8  1  1
  7  9  1  6
  2 10  1  0
  8 10  1  0
  6 11  1  0
 10 12  2  3
  9 13  1  0
 12 14  1  0
 14 15  1  0
  6 16  1  0
  7 16  1  0
 15 17  1  0
 12 18  1  0
 11 19  1  0
 11 20  2  0
 13 21  1  0
 19 22  1  0
 20 23  1  0
 22 24  1  1
 22 25  1  0
 23 25  1  0
 17 26  1  0
 24 27  1  0
 17 28  1  0
 18 28  1  0
M  END
$$$$
85
     RDKit          3D

 28 30  0  0  0  0  0  0  0  0999 V2000
   22.6125   21.9801   61.6250 N   0  0  0  0  0  0  0  0  0  0  0  0
   21.6773   22.1523   62.5264 C   0  0  0  0  0  0  0  0  0  0  0  0
   20.5687   22.9375   62.0174 C   0  0  2  0  0  0  0  0  0  0  0  0
   22.1734   22.1578   60.3222 C   0  0  0  0  0  0  0  0  0  0  0  0
   20.8429   22.9614   60.5146 C   0  0  1  0  0  0  0  0  0  0  0  0
   19.8366   22.4807   59.5567 C   0  0  0  0  0  0  0  0  0  0  0  0
   20.1063   22.7421   58.2456 N   0  0  0  0  0  0  0  0  0  0  0  0
   19.5685   23.6459   62.4976 O   0  0  0  0  0  0  0  0  0  0  0  0
   19.6324   23.8668   57.7487 C   0  0  2  0  0  0  0  0  0  0  0  0
   19.4623   21.5204   57.5024 C   0  0  0  0  0  0  0  0  0  0  0  0
   19.8197   24.3832   63.6245 C   0  0  1  0  0  0  0  0  0  0  0  0
   20.2089   24.4392   56.6171 C   0  0  0  0  0  0  0  0  0  0  0  0
   20.0217   25.9230   56.3719 C   0  0  2  0  0  0  0  0  0  0  0  0
   20.3867   20.3778   57.2000 C   0  0  0  0  0  0  0  0  0  0  0  0
   20.9136   20.3429   55.9147 C   0  0  0  0  0  0  0  0  0  0  0  0
   20.0823   20.0929   54.8340 C   0  0  0  0  0  0  0  0  0  0  0  0
   18.7077   19.6093   54.9715 C   0  0  0  0  0  0  0  0  0  0  0  0
   19.3454   24.9394   58.7792 C   0  0  0  0  0  0  0  0  0  0  0  0
   20.5468   26.6097   55.3129 C   0  0  0  0  0  0  0  0  0  0  0  0
   19.5502   26.2872   57.8376 C   0  0  0  0  0  0  0  0  0  0  0  0
   19.4734   24.0164   64.6731 C   0  0  0  0  0  0  0  0  0  0  0  0
   20.8383   25.5006   63.4224 C   0  0  0  0  0  0  0  0  0  0  0  0
   21.1267   26.2936   64.4656 C   0  0  2  0  0  0  0  0  0  0  0  0
   21.9637   27.4024   64.3387 F   0  0  0  0  0  0  0  0  0  0  0  0
   19.6102   24.7193   65.7835 C   0  0  0  0  0  0  0  0  0  0  0  0
   20.5986   25.9126   65.7733 C   0  0  0  0  0  0  0  0  0  0  0  0
   20.7640   26.0956   54.2428 O   0  0  0  0  0  0  0  0  0  0  0  0
   20.6979   27.8914   55.5243 O   0  0  0  0  0  0  0  0  0  0  0  0
  1  2  1  0
  2  3  1  0
  1  4  1  0
  3  5  1  0
  4  5  1  0
  5  6  1  6
  6  7  1  0
  3  8  1  1
  9  7  1  1
  7 10  1  0
 11  8  1  6
  9 12  1  0
 12 13  1  0
 10 14  1  0
 14 15  1  0
 15 16  1  0
 16 17  1  0
  9 18  1  0
 13 19  1  1
 13 20  1  0
 18 20  1  0
 11 21  1  0
 11 22  1  0
 22 23  1  0
 23 24  1  1
 21 25  1  0
 23 26  1  0
 25 26  1  0
 19 27  2  0
 19 28  1  0
M  END
$$$$
86
     RDKit          3D

 28 32  0  0  0  0  0  0  0  0999 V2000
   21.1517   27.9716   54.3643 O   0  0  0  0  0  0  0  0  0  0  0  0
   20.4864   27.0867   54.9342 C   0  0  0  0  0  0  0  0  0  0  0  0
   19.7016   27.1931   56.0038 N   0  0  0  0  0  0  0  0  0  0  0  0
   20.6273   25.6902   54.3871 N   0  0  0  0  0  0  0  0  0  0  0  0
   20.1450   24.6730   55.0299 C   0  0  0  0  0  0  0  0  0  0  0  0
   19.4748   24.8573   56.2643 C   0  0  2  0  0  0  0  0  0  0  0  0
   19.3118   26.1994   56.8180 C   0  0  2  0  0  0  0  0  0  0  0  0
   18.6940   26.4247   58.0660 N   0  0  0  0  0  0  0  0  0  0  0  0
   19.4458   26.2370   59.1674 C   0  0  0  0  0  0  0  0  0  0  0  0
   20.3267   23.4146   54.5658 N   0  0  0  0  0  0  0  0  0  0  0  0
   19.8951   22.5261   55.7672 C   0  0  2  0  0  0  0  0  0  0  0  0
   21.2284   22.9937   53.7668 C   0  0  0  0  0  0  0  0  0  0  0  0
   19.2402   23.6324   56.9031 C   0  0  0  0  0  0  0  0  0  0  0  0
   20.5850   22.2534   52.7349 C   0  0  0  0  0  0  0  0  0  0  0  0
   19.0079   26.8355   60.3765 N   0  0  0  0  0  0  0  0  0  0  0  0
   20.7877   25.7754   59.2342 O   0  0  0  0  0  0  0  0  0  0  0  0
   21.1655   20.8616   52.5760 C   0  0  0  0  0  0  0  0  0  0  0  0
   20.4132   19.9843   53.2261 C   0  0  2  0  0  0  0  0  0  0  0  0
   19.6437   19.0454   52.5739 C   0  0  0  0  0  0  0  0  0  0  0  0
   19.6783   20.3387   54.4726 C   0  0  1  0  0  0  0  0  0  0  0  0
   18.8665   19.3333   55.1390 C   0  0  0  0  0  0  0  0  0  0  0  0
   18.0787   27.7899   60.3380 C   0  0  0  0  0  0  0  0  0  0  0  0
   18.7157   18.0845   53.1763 C   0  0  0  0  0  0  0  0  0  0  0  0
   18.4445   18.4147   54.5340 C   0  0  0  0  0  0  0  0  0  0  0  0
   20.1911   21.1129   55.6519 C   0  0  0  0  0  0  0  0  0  0  0  0
   17.8919   28.5079   61.6158 C   0  0  0  0  0  0  0  0  0  0  0  0
   19.6044   26.4481   61.6044 C   0  0  0  0  0  0  0  0  0  0  0  0
   18.5957   27.6762   62.6392 C   0  0  0  0  0  0  0  0  0  0  0  0
  1  2  2  0
  2  3  1  0
  2  4  1  0
  4  5  1  0
  5  6  1  0
  3  7  1  0
  6  7  1  0
  7  8  1  6
  8  9  1  0
  5 10  1  0
 10 11  1  0
 10 12  1  0
  6 13  1  1
 11 13  1  1
 12 14  1  0
  9 15  1  0
  9 16  2  0
 14 17  1  0
 18 17  1  6
 18 19  1  0
 18 20  1  0
 20 21  1  1
 15 22  1  0
 19 23  1  0
 21 24  1  0
 23 24  1  0
 11 25  1  0
 20 25  1  0
 22 26  1  0
 15 27  1  0
 26 28  1  0
 27 28  1  0
M  END
$$$$
87
     RDKit          3D

 28 30  0  0  0  0  0  0  0  0999 V2000
   22.6125   21.9801   61.6250 N   0  0  0  0  0  0  0  0  0  0  0  0
   21.6773   22.1523   62.5264 C   0  0  2  0  0  0  0  0  0  0  0  0
   20.5687   22.9375   62.0174 C   0  0  2  0  0  0  0  0  0  0  0  0
   22.1734   22.1578   60.3222 C   0  0  0  0  0  0  0  0  0  0  0  0
   20.8429   22.9614   60.5146 C   0  0  1  0  0  0  0  0  0  0  0  0
   19.8366   22.4807   59.5567 C   0  0  0  0  0  0  0  0  0  0  0  0
   20.1063   22.7421   58.2456 N   0  0  0  0  0  0  0  0  0  0  0  0
   19.5685   23.6459   62.4976 O   0  0  0  0  0  0  0  0  0  0  0  0
   19.6324   23.8668   57.7487 C   0  0  2  0  0  0  0  0  0  0  0  0
   19.4623   21.5204   57.5024 C   0  0  0  0  0  0  0  0  0  0  0  0
   19.8197   24.3832   63.6245 C   0  0  2  0  0  0  0  0  0  0  0  0
   20.2089   24.4392   56.6171 C   0  0  0  0  0  0  0  0  0  0  0  0
   20.0217   25.9230   56.3719 C   0  0  0  0  0  0  0  0  0  0  0  0
   20.3867   20.3778   57.2000 C   0  0  0  0  0  0  0  0  0  0  0  0
   20.9136   20.3429   55.9147 C   0  0  0  0  0  0  0  0  0  0  0  0
   20.0823   20.0929   54.8340 C   0  0  0  0  0  0  0  0  0  0  0  0
   18.7077   19.6093   54.9715 C   0  0  0  0  0  0  0  0  0  0  0  0
   19.3454   24.9394   58.7792 C   0  0  0  0  0  0  0  0  0  0  0  0
   20.5468   26.6097   55.3129 C   0  0  0  0  0  0  0  0  0  0  0  0
   18.9626   25.0153   59.8350 O   0  0  0  0  0  0  0  0  0  0  0  0
   21.1613   26.0644   54.3648 O   0  0  0  0  0  0  0  0  0  0  0  0
   20.2460   27.8440   55.2152 O   0  0  0  0  0  0  0  0  0  0  0  0
   19.4306   26.1924   57.8535 N   0  0  0  0  0  0  0  0  0  0  0  0
   20.0577   25.7378   63.4689 C   0  0  0  0  0  0  0  0  0  0  0  0
   20.8978   23.6909   64.4951 C   0  0  0  0  0  0  0  0  0  0  0  0
   19.0976   26.3951   62.9245 O   0  0  0  0  0  0  0  0  0  0  0  0
   21.1578   26.3218   63.8744 O   0  0  0  0  0  0  0  0  0  0  0  0
   21.3546   22.3641   63.9909 C   0  0  0  0  0  0  0  0  0  0  0  0
  1  2  1  0
  2  3  1  0
  1  4  1  0
  3  5  1  0
  4  5  1  0
  5  6  1  6
  6  7  1  0
  3  8  1  1
  9  7  1  1
  7 10  1  0
  8 11  1  0
  9 12  1  0
 12 13  1  0
 10 14  1  0
 14 15  1  0
 15 16  1  0
 16 17  1  0
  9 18  1  0
 13 19  1  0
 18 20  2  0
 19 21  2  0
 19 22  1  0
 13 23  2  0
 18 23  1  0
 11 24  1  6
 11 25  1  0
 24 26  1  0
 24 27  2  0
  2 28  1  1
 25 28  1  0
M  END
$$$$
88
     RDKit          3D

 28 31  0  0  0  0  0  0  0  0999 V2000
   22.7754   22.2595   60.9306 N   0  0  0  0  0  0  0  0  0  0  0  0
   22.1136   22.1943   62.1222 C   0  0  0  0  0  0  0  0  0  0  0  0
   21.8103   22.0933   59.8647 C   0  0  0  0  0  0  0  0  0  0  0  0
   20.6761   21.9638   61.9261 C   0  0  2  0  0  0  0  0  0  0  0  0
   20.5047   22.1944   60.4889 C   0  0  1  0  0  0  0  0  0  0  0  0
   19.8373   22.8504   62.7500 C   0  0  1  0  0  0  0  0  0  0  0  0
   19.2911   22.2904   63.8711 C   0  0  0  0  0  0  0  0  0  0  0  0
   18.5021   22.9795   64.6672 C   0  0  0  0  0  0  0  0  0  0  0  0
   18.0978   22.4553   65.9968 C   0  0  0  0  0  0  0  0  0  0  0  0
   18.3688   21.0812   66.2113 C   0  0  0  0  0  0  0  0  0  0  0  0
   19.6826   24.1158   62.4569 O   0  0  0  0  0  0  0  0  0  0  0  0
   20.0520   23.5433   60.0708 N   0  0  0  0  0  0  0  0  0  0  0  0
   19.7046   20.9350   64.2706 C   0  0  0  0  0  0  0  0  0  0  0  0
   19.2338   20.4129   65.5316 C   0  0  0  0  0  0  0  0  0  0  0  0
   20.1970   24.5400   61.2381 C   0  0  1  0  0  0  0  0  0  0  0  0
   19.6088   25.9266   60.9354 C   0  0  0  0  0  0  0  0  0  0  0  0
   20.1505   23.9471   58.7704 C   0  0  0  0  0  0  0  0  0  0  0  0
   19.8702   26.8430   61.9002 N   0  0  0  0  0  0  0  0  0  0  0  0
   18.9744   24.3068   58.2260 O   0  0  0  0  0  0  0  0  0  0  0  0
   21.1003   24.0437   57.9129 N   0  0  0  0  0  0  0  0  0  0  0  0
   20.8646   24.4742   56.6053 C   0  0  1  0  0  0  0  0  0  0  0  0
   20.3676   25.8701   56.4649 C   0  0  0  0  0  0  0  0  0  0  0  0
   18.8384   27.7344   62.2878 C   0  0  0  0  0  0  0  0  0  0  0  0
   21.1881   23.9998   55.5013 N   0  0  0  0  0  0  0  0  0  0  0  0
   20.3023   26.1164   55.1089 C   0  0  2  0  0  0  0  0  0  0  0  0
   20.8002   24.9393   54.4521 N   0  0  0  0  0  0  0  0  0  0  0  0
   20.8990   26.5676   62.7952 C   0  0  0  0  0  0  0  0  0  0  0  0
   20.0506   27.3051   54.5315 N   0  0  0  0  0  0  0  0  0  0  0  0
  1  2  1  0
  1  3  1  0
  4  2  1  1
  5  3  1  6
  4  5  1  0
  4  6  1  0
  6  7  1  1
  7  8  1  0
  8  9  1  0
  9 10  1  0
  6 11  1  0
  5 12  1  0
  7 13  1  0
 10 14  1  0
 13 14  1  0
 11 15  1  0
 12 15  1  0
 15 16  1  6
 12 17  1  0
 16 18  1  0
 17 19  2  0
 17 20  1  0
 21 20  1  1
 21 22  1  0
 18 23  1  0
 21 24  1  0
 22 25  1  0
 24 26  1  0
 25 26  1  0
 18 27  1  0
 25 28  1  1
M  END
$$$$
89
     RDKit          3D

 28 30  0  0  0  0  0  0  0  0999 V2000
   22.5907   21.9797   60.8425 N   0  0  0  0  0  0  0  0  0  0  0  0
   21.9092   22.1300   62.0302 C   0  0  0  0  0  0  0  0  0  0  0  0
   21.8010   22.0921   59.7152 C   0  0  1  0  0  0  0  0  0  0  0  0
   21.3144   20.9418   59.1642 C   0  0  0  0  0  0  0  0  0  0  0  0
   21.0536   23.3588   59.6277 C   0  0  1  0  0  0  0  0  0  0  0  0
   20.4167   23.7755   58.5426 N   0  0  0  0  0  0  0  0  0  0  0  0
   20.1666   21.0164   58.1868 C   0  0  2  0  0  0  0  0  0  0  0  0
   20.0557   23.2355   60.9003 C   0  0  0  0  0  0  0  0  0  0  0  0
   19.8071   20.0411   57.2926 C   0  0  0  0  0  0  0  0  0  0  0  0
   20.9601   23.2125   62.1434 C   0  0  0  0  0  0  0  0  0  0  0  0
   19.8825   24.9504   58.1725 C   0  0  0  0  0  0  0  0  0  0  0  0
   20.6543   23.8708   63.2201 C   0  0  0  0  0  0  0  0  0  0  0  0
   18.7347   19.9662   56.5805 C   0  0  0  0  0  0  0  0  0  0  0  0
   19.9339   25.0678   63.1650 C   0  0  0  0  0  0  0  0  0  0  0  0
   20.4146   26.1674   63.7003 C   0  0  0  0  0  0  0  0  0  0  0  0
   20.3061   22.3874   57.4420 C   0  0  0  0  0  0  0  0  0  0  0  0
   21.7308   26.2439   64.2456 C   0  0  0  0  0  0  0  0  0  0  0  0
   21.2138   23.4134   64.4522 C   0  0  0  0  0  0  0  0  0  0  0  0
   20.2641   25.6072   57.1606 N   0  0  0  0  0  0  0  0  0  0  0  0
   18.9643   25.4823   58.9999 N   0  0  0  0  0  0  0  0  0  0  0  0
   18.8163   19.4494   55.1922 C   0  0  0  0  0  0  0  0  0  0  0  0
   19.6902   26.6349   56.6672 C   0  0  1  0  0  0  0  0  0  0  0  0
   18.4352   26.6548   58.7104 C   0  0  0  0  0  0  0  0  0  0  0  0
   17.5222   27.3296   59.5506 N   0  0  0  0  0  0  0  0  0  0  0  0
   21.8422   27.2711   65.3601 C   0  0  0  0  0  0  0  0  0  0  0  0
   18.7574   27.3875   57.5430 C   0  0  0  0  0  0  0  0  0  0  0  0
   20.2140   27.3534   55.5748 N   0  0  0  0  0  0  0  0  0  0  0  0
   20.8021   26.8641   54.4911 C   0  0  0  0  0  0  0  0  0  0  0  0
  1  2  1  0
  1  3  1  0
  3  4  1  1
  3  5  1  0
  5  6  1  0
  4  7  1  0
  5  8  1  1
  7  9  1  6
  2 10  1  0
  8 10  1  0
  6 11  1  0
 10 12  2  3
  9 13  1  0
 12 14  1  0
 14 15  1  0
  6 16  1  0
  7 16  1  0
 15 17  1  0
 12 18  1  0
 11 19  1  0
 11 20  2  0
 13 21  1  0
 19 22  1  0
 20 23  1  0
 23 24  1  0
 17 25  1  0
 22 26  1  0
 23 26  1  0
 22 27  1  1
 27 28  1  0
M  END
$$$$
9
     RDKit          3D

 12 13  0  0  0  0  0  0  0  0999 V2000
   20.1989   20.7786   64.0831 C   0  0  0  0  0  0  0  0  0  0  0  0
   20.7543   21.7693   63.2682 C   0  0  1  0  0  0  0  0  0  0  0  0
   19.0227   21.0050   64.7690 C   0  0  2  0  0  0  0  0  0  0  0  0
   21.8088   21.5608   62.3659 N   0  0  0  0  0  0  0  0  0  0  0  0
   18.5029   20.0724   65.7179 C   0  0  0  0  0  0  0  0  0  0  0  0
   22.1396   22.4414   61.3702 C   0  0  1  0  0  0  0  0  0  0  0  0
   19.7791   22.7587   62.7244 C   0  0  1  0  0  0  0  0  0  0  0  0
   18.3834   22.0214   64.1966 C   0  0  0  0  0  0  0  0  0  0  0  0
   18.6990   22.9407   63.3942 N   0  0  0  0  0  0  0  0  0  0  0  0
   22.9648   21.8293   60.4573 N   0  0  0  0  0  0  0  0  0  0  0  0
   20.2767   23.7165   61.7122 C   0  0  0  0  0  0  0  0  0  0  0  0
   21.3108   23.3890   60.9159 C   0  0  0  0  0  0  0  0  0  0  0  0
  2  1  1  6
  1  3  1  0
  2  4  1  0
  3  5  1  6
  4  6  1  0
  2  7  1  0
  3  8  1  0
  7  9  1  0
  8  9  1  0
  6 10  1  6
  7 11  1  1
  6 12  1  0
 11 12  1  0
M  END
$$$$
90
     RDKit          3D

 28 30  0  0  0  0  0  0  0  0999 V2000
   22.6125   21.9801   61.6250 N   0  0  0  0  0  0  0  0  0  0  0  0
   21.6773   22.1523   62.5264 C   0  0  0  0  0  0  0  0  0  0  0  0
   20.5687   22.9375   62.0174 C   0  0  2  0  0  0  0  0  0  0  0  0
   22.1734   22.1578   60.3222 C   0  0  0  0  0  0  0  0  0  0  0  0
   20.8429   22.9614   60.5146 C   0  0  1  0  0  0  0  0  0  0  0  0
   19.8366   22.4807   59.5567 C   0  0  0  0  0  0  0  0  0  0  0  0
   20.1063   22.7421   58.2456 N   0  0  0  0  0  0  0  0  0  0  0  0
   19.5685   23.6459   62.4976 O   0  0  0  0  0  0  0  0  0  0  0  0
   19.6324   23.8668   57.7487 C   0  0  2  0  0  0  0  0  0  0  0  0
   19.4623   21.5204   57.5024 C   0  0  0  0  0  0  0  0  0  0  0  0
   19.8197   24.3832   63.6245 C   0  0  0  0  0  0  0  0  0  0  0  0
   20.2089   24.4392   56.6171 C   0  0  0  0  0  0  0  0  0  0  0  0
   20.0217   25.9230   56.3719 C   0  0  2  0  0  0  0  0  0  0  0  0
   20.3867   20.3778   57.2000 C   0  0  0  0  0  0  0  0  0  0  0  0
   20.9136   20.3429   55.9147 C   0  0  0  0  0  0  0  0  0  0  0  0
   20.0823   20.0929   54.8340 C   0  0  0  0  0  0  0  0  0  0  0  0
   18.7077   19.6093   54.9715 C   0  0  0  0  0  0  0  0  0  0  0  0
   19.3454   24.9394   58.7792 C   0  0  0  0  0  0  0  0  0  0  0  0
   20.5468   26.6097   55.3129 C   0  0  0  0  0  0  0  0  0  0  0  0
   18.9626   25.0153   59.8350 O   0  0  0  0  0  0  0  0  0  0  0  0
   21.1613   26.0644   54.3648 O   0  0  0  0  0  0  0  0  0  0  0  0
   20.1134   25.7461   63.4077 C   0  0  0  0  0  0  0  0  0  0  0  0
   19.6148   26.3316   58.1218 C   0  0  0  0  0  0  0  0  0  0  0  0
   20.2413   27.8738   55.2561 O   0  0  0  0  0  0  0  0  0  0  0  0
   18.7441   24.2954   64.6932 C   0  0  0  0  0  0  0  0  0  0  0  0
   19.1485   24.9853   65.8854 C   0  0  0  0  0  0  0  0  0  0  0  0
   19.5537   26.4216   65.6541 C   0  0  0  0  0  0  0  0  0  0  0  0
   20.5324   26.5933   64.5375 C   0  0  0  0  0  0  0  0  0  0  0  0
  1  2  1  0
  2  3  1  0
  1  4  1  0
  3  5  1  0
  4  5  1  0
  5  6  1  6
  6  7  1  0
  3  8  1  1
  9  7  1  1
  7 10  1  0
  8 11  1  0
  9 12  1  0
 12 13  1  0
 10 14  1  0
 14 15  1  0
 15 16  1  0
 16 17  1  0
  9 18  1  0
 13 19  1  1
 18 20  2  0
 19 21  2  0
 11 22  1  0
 13 23  1  0
 18 23  1  0
 19 24  1  0
 11 25  1  0
 25 26  1  0
 26 27  1  0
 22 28  1  0
 27 28  1  0
M  END
$$$$
91
     RDKit          3D

 28 31  0  0  0  0  0  0  0  0999 V2000
   22.7754   22.2595   60.9306 N   0  0  0  0  0  0  0  0  0  0  0  0
   22.1136   22.1943   62.1222 C   0  0  0  0  0  0  0  0  0  0  0  0
   21.8103   22.0933   59.8647 C   0  0  0  0  0  0  0  0  0  0  0  0
   20.6761   21.9638   61.9261 C   0  0  2  0  0  0  0  0  0  0  0  0
   20.5047   22.1944   60.4889 C   0  0  1  0  0  0  0  0  0  0  0  0
   19.8373   22.8504   62.7500 C   0  0  1  0  0  0  0  0  0  0  0  0
   19.2911   22.2904   63.8711 C   0  0  0  0  0  0  0  0  0  0  0  0
   18.5021   22.9795   64.6672 C   0  0  0  0  0  0  0  0  0  0  0  0
   18.0978   22.4553   65.9968 C   0  0  0  0  0  0  0  0  0  0  0  0
   18.3688   21.0812   66.2113 C   0  0  0  0  0  0  0  0  0  0  0  0
   19.6826   24.1158   62.4569 O   0  0  0  0  0  0  0  0  0  0  0  0
   20.0520   23.5433   60.0708 N   0  0  0  0  0  0  0  0  0  0  0  0
   19.7046   20.9350   64.2706 C   0  0  0  0  0  0  0  0  0  0  0  0
   19.2338   20.4129   65.5316 C   0  0  0  0  0  0  0  0  0  0  0  0
   20.1970   24.5400   61.2381 C   0  0  1  0  0  0  0  0  0  0  0  0
   19.6088   25.9266   60.9354 C   0  0  0  0  0  0  0  0  0  0  0  0
   20.1505   23.9471   58.7704 C   0  0  0  0  0  0  0  0  0  0  0  0
   19.8702   26.8430   61.9002 N   0  0  0  0  0  0  0  0  0  0  0  0
   18.9744   24.3068   58.2260 O   0  0  0  0  0  0  0  0  0  0  0  0
   21.1003   24.0437   57.9129 N   0  0  0  0  0  0  0  0  0  0  0  0
   20.8646   24.4742   56.6053 C   0  0  1  0  0  0  0  0  0  0  0  0
   20.3676   25.8701   56.4649 C   0  0  0  0  0  0  0  0  0  0  0  0
   18.8384   27.7344   62.2878 C   0  0  0  0  0  0  0  0  0  0  0  0
   21.1881   23.9998   55.5013 N   0  0  0  0  0  0  0  0  0  0  0  0
   20.3023   26.1164   55.1089 C   0  0  2  0  0  0  0  0  0  0  0  0
   20.8002   24.9393   54.4521 N   0  0  0  0  0  0  0  0  0  0  0  0
   20.8990   26.5676   62.7952 C   0  0  0  0  0  0  0  0  0  0  0  0
   19.9595   27.3433   54.2880 C   0  0  0  0  0  0  0  0  0  0  0  0
  1  2  1  0
  1  3  1  0
  4  2  1  1
  5  3  1  6
  4  5  1  0
  4  6  1  0
  6  7  1  1
  7  8  1  0
  8  9  1  0
  9 10  1  0
  6 11  1  0
  5 12  1  0
  7 13  1  0
 10 14  1  0
 13 14  1  0
 11 15  1  0
 12 15  1  0
 15 16  1  6
 12 17  1  0
 16 18  1  0
 17 19  2  0
 17 20  1  0
 21 20  1  1
 21 22  1  0
 18 23  1  0
 21 24  1  0
 22 25  1  0
 24 26  1  0
 25 26  1  0
 18 27  1  0
 25 28  1  1
M  END
$$$$
92
     RDKit          3D

 28 31  0  0  0  0  0  0  0  0999 V2000
   22.7288   21.9193   61.8949 N   0  0  0  0  0  0  0  0  0  0  0  0
   21.9062   22.3403   61.0011 C   0  0  1  0  0  0  0  0  0  0  0  0
   21.6678   21.5785   59.9081 N   0  0  0  0  0  0  0  0  0  0  0  0
   20.6643   21.9393   58.9838 C   0  0  2  0  0  0  0  0  0  0  0  0
   20.5470   22.9899   61.2544 C   0  0  1  0  0  0  0  0  0  0  0  0
   20.4520   24.0816   62.0004 N   0  0  0  0  0  0  0  0  0  0  0  0
   20.0203   23.1077   59.8583 N   0  0  0  0  0  0  0  0  0  0  0  0
   19.9885   21.7013   58.0082 C   0  0  1  0  0  0  0  0  0  0  0  0
   19.0964   23.8583   59.2464 C   0  0  0  0  0  0  0  0  0  0  0  0
   20.7660   24.1420   63.2957 C   0  0  0  0  0  0  0  0  0  0  0  0
   19.0727   22.5285   57.5179 C   0  0  0  0  0  0  0  0  0  0  0  0
   18.6549   23.5356   58.1506 N   0  0  0  0  0  0  0  0  0  0  0  0
   20.3701   20.3885   57.2233 C   0  0  2  0  0  0  0  0  0  0  0  0
   21.2146   23.1533   63.9903 O   0  0  0  0  0  0  0  0  0  0  0  0
   21.5298   20.4791   56.5481 C   0  0  0  0  0  0  0  0  0  0  0  0
   20.5911   25.3360   64.1832 C   0  0  1  0  0  0  0  0  0  0  0  0
   21.7107   19.5822   55.4589 C   0  0  0  0  0  0  0  0  0  0  0  0
   19.2824   19.4766   57.0931 C   0  0  2  0  0  0  0  0  0  0  0  0
   18.1797   19.3765   57.8735 F   0  0  0  0  0  0  0  0  0  0  0  0
   19.4422   18.4633   56.1262 C   0  0  0  0  0  0  0  0  0  0  0  0
   20.6401   18.6505   55.1663 C   0  0  0  0  0  0  0  0  0  0  0  0
   21.1675   25.5124   65.3620 C   0  0  0  0  0  0  0  0  0  0  0  0
   21.0403   26.8053   65.9666 C   0  0  1  0  0  0  0  0  0  0  0  0
   19.8128   26.4225   63.6142 C   0  0  2  0  0  0  0  0  0  0  0  0
   21.7402   27.1262   67.2646 C   0  0  0  0  0  0  0  0  0  0  0  0
   19.0377   26.3310   62.3690 O   0  0  0  0  0  0  0  0  0  0  0  0
   19.8548   27.6942   64.2604 C   0  0  0  0  0  0  0  0  0  0  0  0
   20.4500   27.8418   65.4105 C   0  0  0  0  0  0  0  0  0  0  0  0
  2  1  1  1
  2  3  1  0
  4  3  1  1
  2  5  1  0
  5  6  1  6
  4  7  1  0
  5  7  1  0
  4  8  1  0
  7  9  1  0
  6 10  1  0
  8 11  1  6
  9 12  1  0
 11 12  1  0
  8 13  1  0
 10 14  2  0
 13 15  1  6
 16 10  1  6
 15 17  1  0
 13 18  1  0
 18 19  1  1
 18 20  1  0
 17 21  1  0
 20 21  1  0
 16 22  1  0
 22 23  1  0
 16 24  1  0
 23 25  1  6
 24 26  1  6
 24 27  1  0
 23 28  1  0
 27 28  1  0
M  END
$$$$
93
     RDKit          3D

 28 31  0  0  0  0  0  0  0  0999 V2000
   22.7288   21.9193   61.8949 N   0  0  0  0  0  0  0  0  0  0  0  0
   21.9062   22.3403   61.0011 C   0  0  1  0  0  0  0  0  0  0  0  0
   21.6678   21.5785   59.9081 N   0  0  0  0  0  0  0  0  0  0  0  0
   20.6643   21.9393   58.9838 C   0  0  2  0  0  0  0  0  0  0  0  0
   20.5470   22.9899   61.2544 C   0  0  1  0  0  0  0  0  0  0  0  0
   20.4520   24.0816   62.0004 N   0  0  0  0  0  0  0  0  0  0  0  0
   20.0203   23.1077   59.8583 N   0  0  0  0  0  0  0  0  0  0  0  0
   19.9885   21.7013   58.0082 C   0  0  1  0  0  0  0  0  0  0  0  0
   19.0964   23.8583   59.2464 C   0  0  0  0  0  0  0  0  0  0  0  0
   20.7660   24.1420   63.2957 C   0  0  0  0  0  0  0  0  0  0  0  0
   19.0727   22.5285   57.5179 C   0  0  0  0  0  0  0  0  0  0  0  0
   18.6549   23.5356   58.1506 N   0  0  0  0  0  0  0  0  0  0  0  0
   20.3701   20.3885   57.2233 C   0  0  2  0  0  0  0  0  0  0  0  0
   21.2146   23.1533   63.9903 O   0  0  0  0  0  0  0  0  0  0  0  0
   21.5298   20.4791   56.5481 C   0  0  0  0  0  0  0  0  0  0  0  0
   20.5911   25.3360   64.1832 C   0  0  1  0  0  0  0  0  0  0  0  0
   21.7107   19.5822   55.4589 C   0  0  0  0  0  0  0  0  0  0  0  0
   19.2824   19.4766   57.0931 C   0  0  2  0  0  0  0  0  0  0  0  0
   18.1797   19.3765   57.8735 F   0  0  0  0  0  0  0  0  0  0  0  0
   19.4422   18.4633   56.1262 C   0  0  0  0  0  0  0  0  0  0  0  0
   20.6401   18.6505   55.1663 C   0  0  0  0  0  0  0  0  0  0  0  0
   21.1675   25.5124   65.3620 C   0  0  0  0  0  0  0  0  0  0  0  0
   21.0403   26.8053   65.9666 C   0  0  0  0  0  0  0  0  0  0  0  0
   19.8128   26.4225   63.6142 C   0  0  2  0  0  0  0  0  0  0  0  0
   21.7402   27.1262   67.2646 C   0  0  0  0  0  0  0  0  0  0  0  0
   19.0377   26.3310   62.3690 O   0  0  0  0  0  0  0  0  0  0  0  0
   19.8548   27.6942   64.2604 C   0  0  0  0  0  0  0  0  0  0  0  0
   20.3523   27.8469   65.5204 N   0  0  0  0  0  0  0  0  0  0  0  0
  2  1  1  1
  2  3  1  0
  4  3  1  1
  2  5  1  0
  5  6  1  6
  4  7  1  0
  5  7  1  0
  4  8  1  0
  7  9  1  0
  6 10  1  0
  8 11  1  6
  9 12  1  0
 11 12  1  0
  8 13  1  0
 10 14  2  0
 13 15  1  6
 16 10  1  6
 15 17  1  0
 13 18  1  0
 18 19  1  1
 18 20  1  0
 17 21  1  0
 20 21  1  0
 16 22  1  0
 22 23  1  0
 16 24  1  0
 23 25  1  0
 24 26  1  6
 24 27  1  0
 23 28  1  0
 27 28  1  0
M  END
$$$$
94
     RDKit          3D

 28 33  0  0  0  0  0  0  0  0999 V2000
   21.2639   27.8419   54.9359 O   0  0  0  0  0  0  0  0  0  0  0  0
   20.3366   27.2175   54.8217 C   0  0  0  0  0  0  0  0  0  0  0  0
   19.5515   27.0519   53.9647 N   0  0  0  0  0  0  0  0  0  0  0  0
   20.3061   25.7900   55.6083 C   0  0  0  0  0  0  0  0  0  0  0  0
   20.0098   26.0000   57.0250 C   0  0  2  0  0  0  0  0  0  0  0  0
   20.5230   24.6113   55.1364 C   0  0  0  0  0  0  0  0  0  0  0  0
   20.8011   24.4551   53.7045 N   0  0  0  0  0  0  0  0  0  0  0  0
   20.5217   23.4750   55.8575 C   0  0  1  0  0  0  0  0  0  0  0  0
   19.7328   27.1957   57.8023 C   0  0  0  0  0  0  0  0  0  0  0  0
   20.1158   24.7749   57.8698 C   0  0  2  0  0  0  0  0  0  0  0  0
   20.3076   23.7474   57.2539 C   0  0  1  0  0  0  0  0  0  0  0  0
   19.7909   24.9315   59.2731 C   0  0  2  0  0  0  0  0  0  0  0  0
   19.5152   26.2076   59.7520 C   0  0  0  0  0  0  0  0  0  0  0  0
   19.5343   27.2996   58.9094 C   0  0  0  0  0  0  0  0  0  0  0  0
   20.6348   22.0789   55.3377 C   0  0  1  0  0  0  0  0  0  0  0  0
   21.0883   21.9256   54.1179 C   0  0  2  0  0  0  0  0  0  0  0  0
   20.5181   20.8826   56.1676 C   0  0  0  0  0  0  0  0  0  0  0  0
   20.9650   23.1157   53.2357 C   0  0  0  0  0  0  0  0  0  0  0  0
   19.8269   23.7931   60.1071 N   0  0  0  0  0  0  0  0  0  0  0  0
   21.0363   23.2583   60.5833 C   0  0  2  0  0  0  0  0  0  0  0  0
   21.3729   20.6116   53.4265 C   0  0  0  0  0  0  0  0  0  0  0  0
   20.0278   20.9335   57.6103 C   0  0  0  0  0  0  0  0  0  0  0  0
   20.1046   22.3697   58.1339 C   0  0  1  0  0  0  0  0  0  0  0  0
   20.1816   22.3424   59.6401 C   0  0  2  0  0  0  0  0  0  0  0  0
   21.3953   22.3367   61.6323 C   0  0  0  0  0  0  0  0  0  0  0  0
   22.6344   21.8963   61.4401 N   0  0  0  0  0  0  0  0  0  0  0  0
   20.7261   22.1862   62.6753 N   0  0  0  0  0  0  0  0  0  0  0  0
   20.9709   21.3379   63.7417 O   0  0  0  0  0  0  0  0  0  0  0  0
  1  2  2  0
  2  3  1  0
  2  4  1  0
  4  5  1  0
  4  6  1  0
  6  7  1  0
  8  6  1  6
  5  9  1  1
 10  5  1  6
  8 11  1  0
 10 11  1  0
 10 12  1  0
 12 13  1  1
  9 14  1  0
 13 14  1  0
  8 15  1  0
 15 16  1  0
 15 17  1  1
  7 18  1  0
 16 18  1  0
 12 19  1  0
 19 20  1  0
 16 21  1  6
 17 22  1  0
 11 23  1  6
 23 22  1  6
 24 19  1  1
 20 24  1  0
 23 24  1  0
 20 25  1  1
 25 26  1  0
 25 27  2  3
 27 28  1  0
M  END
$$$$
95
     RDKit          3D

 29 30  0  0  0  0  0  0  0  0999 V2000
   22.6125   21.9801   61.6250 N   0  0  0  0  0  0  0  0  0  0  0  0
   21.6773   22.1523   62.5264 C   0  0  0  0  0  0  0  0  0  0  0  0
   20.5687   22.9375   62.0174 C   0  0  2  0  0  0  0  0  0  0  0  0
   22.1734   22.1578   60.3222 C   0  0  0  0  0  0  0  0  0  0  0  0
   20.8429   22.9614   60.5146 C   0  0  1  0  0  0  0  0  0  0  0  0
   19.8366   22.4807   59.5567 C   0  0  0  0  0  0  0  0  0  0  0  0
   20.1063   22.7421   58.2456 N   0  0  0  0  0  0  0  0  0  0  0  0
   19.5685   23.6459   62.4976 O   0  0  0  0  0  0  0  0  0  0  0  0
   19.6324   23.8668   57.7487 C   0  0  2  0  0  0  0  0  0  0  0  0
   19.4623   21.5204   57.5024 C   0  0  0  0  0  0  0  0  0  0  0  0
   19.8197   24.3832   63.6245 C   0  0  1  0  0  0  0  0  0  0  0  0
   20.2089   24.4392   56.6171 C   0  0  0  0  0  0  0  0  0  0  0  0
   20.0217   25.9230   56.3719 C   0  0  2  0  0  0  0  0  0  0  0  0
   20.3867   20.3778   57.2000 C   0  0  0  0  0  0  0  0  0  0  0  0
   20.9136   20.3429   55.9147 C   0  0  0  0  0  0  0  0  0  0  0  0
   20.0823   20.0929   54.8340 C   0  0  0  0  0  0  0  0  0  0  0  0
   18.7077   19.6093   54.9715 C   0  0  0  0  0  0  0  0  0  0  0  0
   19.3454   24.9394   58.7792 C   0  0  0  0  0  0  0  0  0  0  0  0
   20.5468   26.6097   55.3129 C   0  0  0  0  0  0  0  0  0  0  0  0
   18.9626   25.0153   59.8350 O   0  0  0  0  0  0  0  0  0  0  0  0
   21.1613   26.0644   54.3648 O   0  0  0  0  0  0  0  0  0  0  0  0
   20.1134   25.7461   63.4077 C   0  0  0  0  0  0  0  0  0  0  0  0
   19.6148   26.3316   58.1218 C   0  0  0  0  0  0  0  0  0  0  0  0
   20.2413   27.8738   55.2561 O   0  0  0  0  0  0  0  0  0  0  0  0
   18.7441   24.2954   64.6932 C   0  0  2  0  0  0  0  0  0  0  0  0
   18.5791   22.9819   65.2546 O   0  0  0  0  0  0  0  0  0  0  0  0
   18.4679   22.6643   66.4430 C   0  0  0  0  0  0  0  0  0  0  0  0
   21.4316   26.0226   63.0109 C   0  0  0  0  0  0  0  0  0  0  0  0
   17.7835   25.0620   64.7807 O   0  0  0  0  0  0  0  0  0  0  0  0
  1  2  1  0
  2  3  1  0
  1  4  1  0
  3  5  1  0
  4  5  1  0
  5  6  1  6
  6  7  1  0
  3  8  1  1
  9  7  1  1
  7 10  1  0
  8 11  1  0
  9 12  1  0
 12 13  1  0
 10 14  1  0
 14 15  1  0
 15 16  1  0
 16 17  1  0
  9 18  1  0
 13 19  1  1
 18 20  2  0
 19 21  2  0
 11 22  1  6
 13 23  1  0
 18 23  1  0
 19 24  1  0
 11 25  1  0
 25 26  1  0
 26 27  1  0
 22 28  1  0
 25 29  1  6
M  END
$$$$
96
     RDKit          3D

 29 32  0  0  0  0  0  0  0  0999 V2000
   22.5907   21.9797   60.8425 N   0  0  0  0  0  0  0  0  0  0  0  0
   21.9092   22.1300   62.0302 C   0  0  0  0  0  0  0  0  0  0  0  0
   21.8010   22.0921   59.7152 C   0  0  1  0  0  0  0  0  0  0  0  0
   21.3144   20.9418   59.1642 C   0  0  0  0  0  0  0  0  0  0  0  0
   21.0536   23.3588   59.6277 C   0  0  1  0  0  0  0  0  0  0  0  0
   20.4167   23.7755   58.5426 N   0  0  0  0  0  0  0  0  0  0  0  0
   20.1666   21.0164   58.1868 C   0  0  2  0  0  0  0  0  0  0  0  0
   20.0557   23.2355   60.9003 C   0  0  0  0  0  0  0  0  0  0  0  0
   19.8071   20.0411   57.2926 C   0  0  0  0  0  0  0  0  0  0  0  0
   20.9601   23.2125   62.1434 C   0  0  1  0  0  0  0  0  0  0  0  0
   19.8825   24.9504   58.1725 C   0  0  1  0  0  0  0  0  0  0  0  0
   20.6543   23.8708   63.2201 C   0  0  0  0  0  0  0  0  0  0  0  0
   19.9299   22.5018   57.6649 C   0  0  0  0  0  0  0  0  0  0  0  0
   19.6934   23.6388   63.9557 O   0  0  0  0  0  0  0  0  0  0  0  0
   21.5121   24.8349   63.7037 N   0  0  0  0  0  0  0  0  0  0  0  0
   19.4111   20.3040   56.0048 C   0  0  0  0  0  0  0  0  0  0  0  0
   21.3424   25.6097   64.8709 C   0  0  0  0  0  0  0  0  0  0  0  0
   21.6849   25.2847   66.1334 C   0  0  0  0  0  0  0  0  0  0  0  0
   21.7553   26.2445   67.1424 C   0  0  0  0  0  0  0  0  0  0  0  0
   18.9425   19.2635   55.0895 C   0  0  0  0  0  0  0  0  0  0  0  0
   21.1372   27.1391   64.6973 C   0  0  0  0  0  0  0  0  0  0  0  0
   21.4501   27.5567   66.9655 C   0  0  0  0  0  0  0  0  0  0  0  0
   21.1746   27.9379   65.6913 C   0  0  0  0  0  0  0  0  0  0  0  0
   20.0246   25.9761   58.8666 N   0  0  0  0  0  0  0  0  0  0  0  0
   19.5089   27.1750   58.5388 C   0  0  1  0  0  0  0  0  0  0  0  0
   19.6571   28.2791   59.3004 C   0  0  0  0  0  0  0  0  0  0  0  0
   19.3279   25.1821   56.8957 N   0  0  0  0  0  0  0  0  0  0  0  0
   18.9875   27.3234   57.2710 C   0  0  0  0  0  0  0  0  0  0  0  0
   18.9208   26.2474   56.4617 C   0  0  0  0  0  0  0  0  0  0  0  0
  1  2  1  0
  1  3  1  0
  3  4  1  1
  3  5  1  0
  5  6  1  0
  4  7  1  0
  5  8  1  1
  7  9  1  6
  2 10  1  0
  8 10  1  0
 11  6  1  6
 10 12  1  1
  6 13  1  0
  7 13  1  0
 12 14  2  0
 12 15  1  0
  9 16  1  0
 15 17  1  0
 17 18  1  0
 18 19  1  0
 16 20  1  0
 17 21  1  0
 19 22  1  0
 21 23  1  0
 22 23  1  0
 11 24  1  0
 24 25  1  0
 25 26  1  6
 11 27  1  0
 25 28  1  0
 27 29  1  0
 28 29  1  0
M  END
$$$$
97
     RDKit          3D

 29 31  0  0  0  0  0  0  0  0999 V2000
   22.6125   21.9801   61.6250 N   0  0  0  0  0  0  0  0  0  0  0  0
   21.6773   22.1523   62.5264 C   0  0  0  0  0  0  0  0  0  0  0  0
   20.5687   22.9375   62.0174 C   0  0  2  0  0  0  0  0  0  0  0  0
   22.1734   22.1578   60.3222 C   0  0  0  0  0  0  0  0  0  0  0  0
   20.8429   22.9614   60.5146 C   0  0  1  0  0  0  0  0  0  0  0  0
   19.8366   22.4807   59.5567 C   0  0  0  0  0  0  0  0  0  0  0  0
   20.1063   22.7421   58.2456 N   0  0  0  0  0  0  0  0  0  0  0  0
   19.5685   23.6459   62.4976 O   0  0  0  0  0  0  0  0  0  0  0  0
   19.6324   23.8668   57.7487 C   0  0  2  0  0  0  0  0  0  0  0  0
   19.4623   21.5204   57.5024 C   0  0  0  0  0  0  0  0  0  0  0  0
   19.8197   24.3832   63.6245 C   0  0  1  0  0  0  0  0  0  0  0  0
   20.2089   24.4392   56.6171 C   0  0  0  0  0  0  0  0  0  0  0  0
   20.0217   25.9230   56.3719 C   0  0  2  0  0  0  0  0  0  0  0  0
   20.3867   20.3778   57.2000 C   0  0  0  0  0  0  0  0  0  0  0  0
   20.9136   20.3429   55.9147 C   0  0  0  0  0  0  0  0  0  0  0  0
   20.0823   20.0929   54.8340 C   0  0  0  0  0  0  0  0  0  0  0  0
   18.7077   19.6093   54.9715 C   0  0  0  0  0  0  0  0  0  0  0  0
   19.3454   24.9394   58.7792 C   0  0  0  0  0  0  0  0  0  0  0  0
   20.5468   26.6097   55.3129 C   0  0  0  0  0  0  0  0  0  0  0  0
   18.9626   25.0153   59.8350 O   0  0  0  0  0  0  0  0  0  0  0  0
   21.1613   26.0644   54.3648 O   0  0  0  0  0  0  0  0  0  0  0  0
   20.1134   25.7461   63.4077 C   0  0  0  0  0  0  0  0  0  0  0  0
   19.6148   26.3316   58.1218 C   0  0  0  0  0  0  0  0  0  0  0  0
   20.2413   27.8738   55.2561 O   0  0  0  0  0  0  0  0  0  0  0  0
   18.7441   24.2954   64.6932 C   0  0  0  0  0  0  0  0  0  0  0  0
   20.6295   26.5332   64.4868 C   0  0  0  0  0  0  0  0  0  0  0  0
   19.2303   25.0785   65.9380 C   0  0  2  0  0  0  0  0  0  0  0  0
   18.5368   24.9516   67.1175 O   0  0  0  0  0  0  0  0  0  0  0  0
   19.9323   26.3410   65.7766 C   0  0  0  0  0  0  0  0  0  0  0  0
  1  2  1  0
  2  3  1  0
  1  4  1  0
  3  5  1  0
  4  5  1  0
  5  6  1  6
  6  7  1  0
  3  8  1  1
  9  7  1  1
  7 10  1  0
 11  8  1  6
  9 12  1  0
 12 13  1  0
 10 14  1  0
 14 15  1  0
 15 16  1  0
 16 17  1  0
  9 18  1  0
 13 19  1  1
 18 20  2  0
 19 21  2  0
 11 22  1  0
 13 23  1  0
 18 23  1  0
 19 24  1  0
 11 25  1  0
 22 26  1  0
 25 27  1  0
 27 28  1  1
 26 29  1  0
 27 29  1  0
M  END
$$$$
98
     RDKit          3D

 29 33  0  0  0  0  0  0  0  0999 V2000
   20.9852   21.4046   63.3158 O   0  0  0  0  0  0  0  0  0  0  0  0
   21.3343   22.2070   62.2122 C   0  0  2  0  0  0  0  0  0  0  0  0
   22.0310   21.7925   61.1668 C   0  0  0  0  0  0  0  0  0  0  0  0
   21.5981   23.5966   62.6516 C   0  0  1  0  0  0  0  0  0  0  0  0
   21.5331   24.4585   61.5315 O   0  0  0  0  0  0  0  0  0  0  0  0
   20.3524   24.6061   60.9278 C   0  0  2  0  0  0  0  0  0  0  0  0
   20.1081   23.4192   60.1078 C   0  0  0  0  0  0  0  0  0  0  0  0
   19.8736   22.4995   61.4305 O   0  0  0  0  0  0  0  0  0  0  0  0
   20.8023   23.7669   63.8371 C   0  0  1  0  0  0  0  0  0  0  0  0
   20.5652   22.3711   64.2944 C   0  0  0  0  0  0  0  0  0  0  0  0
   20.7085   24.8526   64.5717 C   0  0  0  0  0  0  0  0  0  0  0  0
   19.9801   22.0745   65.5513 O   0  0  0  0  0  0  0  0  0  0  0  0
   20.4177   25.7348   59.8851 N   0  0  0  0  0  0  0  0  0  0  0  0
   20.3417   26.0973   64.0419 C   0  0  0  0  0  0  0  0  0  0  0  0
   21.1662   24.9021   65.9626 C   0  0  0  0  0  0  0  0  0  0  0  0
   19.8524   26.8773   59.9919 C   0  0  0  0  0  0  0  0  0  0  0  0
   19.9763   25.1060   58.5329 C   0  0  2  0  0  0  0  0  0  0  0  0
   20.1606   23.5774   58.8817 C   0  0  0  0  0  0  0  0  0  0  0  0
   20.3542   27.2408   64.9135 C   0  0  0  0  0  0  0  0  0  0  0  0
   20.8578   27.2179   66.1194 C   0  0  0  0  0  0  0  0  0  0  0  0
   19.3109   27.4194   61.0250 O   0  0  0  0  0  0  0  0  0  0  0  0
   21.2981   26.1118   66.6451 C   0  0  0  0  0  0  0  0  0  0  0  0
   19.7864   25.8602   57.5789 C   0  0  1  0  0  0  0  0  0  0  0  0
   19.7246   27.7393   58.8522 C   0  0  0  0  0  0  0  0  0  0  0  0
   19.7498   25.1485   56.2365 C   0  0  0  0  0  0  0  0  0  0  0  0
   20.7346   25.5336   55.3414 O   0  0  0  0  0  0  0  0  0  0  0  0
   20.5693   26.8993   54.6612 C   0  0  0  0  0  0  0  0  0  0  0  0
   21.5711   21.2168   60.0292 O   0  0  0  0  0  0  0  0  0  0  0  0
   19.5301   27.1612   57.5494 C   0  0  0  0  0  0  0  0  0  0  0  0
  1  2  1  0
  2  3  1  6
  2  4  1  0
  4  5  1  6
  6  5  1  6
  6  7  1  0
  2  8  1  0
  7  8  1  0
  4  9  1  0
  1 10  1  0
  9 10  1  0
  9 11  1  1
 10 12  2  0
  6 13  1  0
 11 14  1  0
 11 15  1  0
 13 16  1  0
 13 17  1  0
  7 18  1  0
 17 18  1  6
 14 19  1  0
 19 20  1  0
 16 21  2  0
 15 22  1  0
 20 22  1  0
 17 23  1  0
 16 24  1  0
 23 25  1  1
 25 26  1  0
 26 27  1  0
  3 28  1  0
 23 29  1  0
 24 29  1  0
M  END
$$$$
99
     RDKit          3D

 29 32  0  0  0  0  0  0  0  0999 V2000
   21.0347   27.9269   54.5582 O   0  0  0  0  0  0  0  0  0  0  0  0
   20.4662   26.8777   55.0560 C   0  0  1  0  0  0  0  0  0  0  0  0
   19.8977   26.7767   56.1838 C   0  0  0  0  0  0  0  0  0  0  0  0
   20.4106   25.7552   54.0986 C   0  0  0  0  0  0  0  0  0  0  0  0
   19.9152   24.5494   54.6359 C   0  0  0  0  0  0  0  0  0  0  0  0
   19.4409   25.5728   56.7587 C   0  0  1  0  0  0  0  0  0  0  0  0
   19.5864   24.3908   55.9492 C   0  0  0  0  0  0  0  0  0  0  0  0
   18.8530   25.4475   58.2255 C   0  0  0  0  0  0  0  0  0  0  0  0
   19.9718   25.4644   59.2147 C   0  0  1  0  0  0  0  0  0  0  0  0
   19.7861   26.2245   60.2591 N   0  0  0  0  0  0  0  0  0  0  0  0
   20.4427   26.3420   61.3360 C   0  0  1  0  0  0  0  0  0  0  0  0
   20.2169   24.1648   59.8285 C   0  0  2  0  0  0  0  0  0  0  0  0
   21.0115   24.0837   61.0679 N   0  0  0  0  0  0  0  0  0  0  0  0
   20.2221   22.9293   59.0941 N   0  0  0  0  0  0  0  0  0  0  0  0
   21.4039   22.7207   61.4412 C   0  0  2  0  0  0  0  0  0  0  0  0
   21.4954   21.8923   60.3884 C   0  0  1  0  0  0  0  0  0  0  0  0
   20.6925   22.0414   62.4155 O   0  0  0  0  0  0  0  0  0  0  0  0
   20.6501   21.8098   59.3494 C   0  0  2  0  0  0  0  0  0  0  0  0
   20.5496   20.7361   58.5307 C   0  0  0  0  0  0  0  0  0  0  0  0
   20.2554   27.1300   62.2883 N   0  0  0  0  0  0  0  0  0  0  0  0
   20.5392   27.0057   63.5774 C   0  0  0  0  0  0  0  0  0  0  0  0
   20.9303   25.7025   63.9328 N   0  0  0  0  0  0  0  0  0  0  0  0
   19.8250   20.8821   57.2910 C   0  0  0  0  0  0  0  0  0  0  0  0
   19.8430   19.8256   56.3443 C   0  0  0  0  0  0  0  0  0  0  0  0
   21.0268   24.7307   63.0259 C   0  0  0  0  0  0  0  0  0  0  0  0
   20.7675   24.9800   61.8292 C   0  0  1  0  0  0  0  0  0  0  0  0
   18.7524   19.4515   55.7757 C   0  0  0  0  0  0  0  0  0  0  0  0
   22.9231   21.9050   59.8934 O   0  0  0  0  0  0  0  0  0  0  0  0
   21.1084   19.4576   55.7877 C   0  0  0  0  0  0  0  0  0  0  0  0
  2  1  1  6
  2  3  1  0
  2  4  1  0
  4  5  1  0
  3  6  1  0
  5  7  1  0
  6  7  1  0
  6  8  1  1
  9  8  1  6
  9 10  1  0
 11 10  1  6
  9 12  1  0
 12 13  1  0
 12 14  1  6
 13 15  1  0
 15 16  1  0
 15 17  1  1
 14 18  1  0
 16 18  1  0
 18 19  1  6
 11 20  1  0
 20 21  1  0
 21 22  1  0
 19 23  1  0
 23 24  1  0
 22 25  1  0
 11 26  1  0
 13 26  1  0
 26 25  1  1
 24 27  1  0
 16 28  1  6
 24 29  1  0
M  END
$$$$
