0
     RDKit          3D

 13 14  0  0  0  0  0  0  0  0999 V2000
   35.2602   31.4301   52.9393 O   0  0  0  0  0  0  0  0  0  0  0  0
   36.2738   31.9774   53.3380 C   0  0  0  0  0  0  0  0  0  0  0  0
   37.3703   32.4360   52.5493 N   0  0  0  0  0  0  0  0  0  0  0  0
   38.2210   33.3688   52.9450 C   0  0  2  0  0  0  0  0  0  0  0  0
   38.0935   33.9659   54.1791 N   0  0  0  0  0  0  0  0  0  0  0  0
   38.9933   34.1733   52.0202 C   0  0  0  0  0  0  0  0  0  0  0  0
   39.6456   35.3462   52.5310 C   0  0  0  0  0  0  0  0  0  0  0  0
   39.5722   35.6983   53.8252 C   0  0  0  0  0  0  0  0  0  0  0  0
   38.7786   34.9724   54.6523 C   0  0  0  0  0  0  0  0  0  0  0  0
   40.5349   36.1958   51.3273 Cl  0  0  0  0  0  0  0  0  0  0  0  0
   36.4689   32.4082   54.7910 C   0  0  0  0  0  0  0  0  0  0  0  0
   37.2924   33.3985   55.1797 C   0  0  0  0  0  0  0  0  0  0  0  0
   37.2980   33.7528   56.4987 O   0  0  0  0  0  0  0  0  0  0  0  0
  1  2  2  0
  2  3  1  0
  3  4  1  0
  4  5  1  0
  4  6  1  6
  6  7  1  0
  7  8  1  0
  5  9  1  0
  8  9  1  0
  7 10  1  0
  2 11  1  0
  5 12  1  0
 11 12  1  0
 12 13  2  0
M  END
$$$$
1
     RDKit          3D

 15 16  0  0  0  0  0  0  0  0999 V2000
   39.0920   33.9495   51.8067 C   0  0  0  0  0  0  0  0  0  0  0  0
   39.6821   34.8771   51.1967 C   0  0  0  0  0  0  0  0  0  0  0  0
   40.0512   36.1562   51.6305 C   0  0  0  0  0  0  0  0  0  0  0  0
   38.5630   34.3778   53.1312 C   0  0  1  0  0  0  0  0  0  0  0  0
   37.7964   33.3870   53.9078 N   0  0  0  0  0  0  0  0  0  0  0  0
   38.7970   35.6118   53.7532 C   0  0  0  0  0  0  0  0  0  0  0  0
   39.5214   36.4453   52.9353 C   0  0  0  0  0  0  0  0  0  0  0  0
   39.8847   38.0878   53.5636 Cl  0  0  0  0  0  0  0  0  0  0  0  0
   36.9668   32.5143   53.2538 C   0  0  0  0  0  0  0  0  0  0  0  0
   36.1240   31.9589   53.9249 C   0  0  2  0  0  0  0  0  0  0  0  0
   37.6192   33.3597   55.1771 C   0  0  0  0  0  0  0  0  0  0  0  0
   36.5098   32.3742   55.3938 N   0  0  0  0  0  0  0  0  0  0  0  0
   35.0218   30.9417   53.6910 C   0  0  0  0  0  0  0  0  0  0  0  0
   34.6706   30.7931   52.4896 O   0  0  0  0  0  0  0  0  0  0  0  0
   34.4129   30.5007   54.7604 O   0  0  0  0  0  0  0  0  0  0  0  0
  1  2  1  0
  2  3  1  0
  1  4  1  0
  4  5  1  1
  4  6  1  0
  3  7  1  0
  6  7  1  0
  7  8  1  0
  5  9  1  0
  9 10  1  0
  5 11  1  0
 10 12  1  0
 11 12  1  0
 10 13  1  1
 13 14  2  0
 13 15  1  0
M  END
$$$$
10
     RDKit          3D

 17 19  0  0  0  0  0  0  0  0999 V2000
   40.5318   36.1689   51.0562 N   0  0  0  0  0  0  0  0  0  0  0  0
   39.7629   35.1918   51.3312 C   0  0  1  0  0  0  0  0  0  0  0  0
   39.6049   34.0887   50.5696 N   0  0  0  0  0  0  0  0  0  0  0  0
   40.5543   37.2240   52.0133 C   0  0  0  0  0  0  0  0  0  0  0  0
   39.1266   34.9892   52.6395 C   0  0  2  0  0  0  0  0  0  0  0  0
   38.4023   33.8244   52.9241 C   0  0  0  0  0  0  0  0  0  0  0  0
   39.8348   37.0249   53.2147 C   0  0  0  0  0  0  0  0  0  0  0  0
   39.1837   35.9983   53.5382 C   0  0  1  0  0  0  0  0  0  0  0  0
   38.8382   33.0099   50.8588 C   0  0  0  0  0  0  0  0  0  0  0  0
   38.2893   33.0217   52.1450 C   0  0  0  0  0  0  0  0  0  0  0  0
   37.8375   33.6559   54.2773 C   0  0  1  0  0  0  0  0  0  0  0  0
   37.2284   32.4925   54.6131 C   0  0  0  0  0  0  0  0  0  0  0  0
   35.7970   32.8145   54.9754 C   0  0  0  0  0  0  0  0  0  0  0  0
   34.9062   31.7894   54.5888 O   0  0  0  0  0  0  0  0  0  0  0  0
   38.0755   34.5018   55.3013 C   0  0  0  0  0  0  0  0  0  0  0  0
   38.2566   35.9318   54.7268 C   0  0  0  0  0  0  0  0  0  0  0  0
   35.3559   33.7402   55.4663 O   0  0  0  0  0  0  0  0  0  0  0  0
  2  1  1  1
  2  3  1  0
  1  4  1  0
  2  5  1  0
  5  6  1  6
  4  7  1  0
  5  8  1  0
  8  7  1  6
  3  9  1  0
  6 10  1  0
  9 10  1  0
  6 11  1  0
 11 12  1  1
 12 13  1  0
 13 14  1  0
 11 15  1  0
  8 16  1  0
 15 16  1  0
 13 17  2  0
M  END
$$$$
100
     RDKit          3D

 24 29  0  0  0  0  0  0  0  0999 V2000
   40.5234   35.9614   51.1397 N   0  0  0  0  0  0  0  0  0  0  0  0
   39.6713   35.0294   51.4226 C   0  0  2  0  0  0  0  0  0  0  0  0
   39.1255   34.8170   52.3649 N   0  0  0  0  0  0  0  0  0  0  0  0
   40.3024   36.9475   52.2143 C   0  0  0  0  0  0  0  0  0  0  0  0
   39.8945   33.8447   50.3297 N   0  0  0  0  0  0  0  0  0  0  0  0
   39.0478   35.7742   53.2903 C   0  0  0  0  0  0  0  0  0  0  0  0
   41.1032   38.2314   52.0354 N   0  0  0  0  0  0  0  0  0  0  0  0
   38.1647   35.4757   54.4999 N   0  0  0  0  0  0  0  0  0  0  0  0
   38.1178   36.5501   55.4849 C   0  0  2  0  0  0  0  0  0  0  0  0
   37.3112   36.2545   56.5998 N   0  0  0  0  0  0  0  0  0  0  0  0
   37.1327   37.2091   57.6049 C   0  0  0  0  0  0  0  0  0  0  0  0
   36.8064   35.0819   56.9890 C   0  0  1  0  0  0  0  0  0  0  0  0
   36.5963   36.6793   58.7130 N   0  0  0  0  0  0  0  0  0  0  0  0
   36.2931   35.3415   58.3340 C   0  0  2  0  0  0  0  0  0  0  0  0
   39.6272   36.8819   53.2253 C   0  0  2  0  0  0  0  0  0  0  0  0
   35.6693   34.3398   59.1573 C   0  0  0  0  0  0  0  0  0  0  0  0
   38.1298   37.8514   55.3565 C   0  0  0  0  0  0  0  0  0  0  0  0
   36.5974   33.8237   56.3009 C   0  0  1  0  0  0  0  0  0  0  0  0
   39.4327   38.0757   54.2064 C   0  0  0  0  0  0  0  0  0  0  0  0
   35.9169   32.8786   57.0414 N   0  0  0  0  0  0  0  0  0  0  0  0
   36.8853   33.5703   55.0249 N   0  0  0  0  0  0  0  0  0  0  0  0
   35.5041   33.0979   58.3542 C   0  0  0  0  0  0  0  0  0  0  0  0
   37.6730   34.4140   54.2532 C   0  0  2  0  0  0  0  0  0  0  0  0
   38.1499   33.8401   53.0266 C   0  0  0  0  0  0  0  0  0  0  0  0
  1  2  1  0
  2  3  1  0
  1  4  1  0
  2  5  1  1
  3  6  1  0
  4  7  1  0
  6  8  1  0
  8  9  1  0
  9 10  1  0
 10 11  1  0
 12 10  1  6
 11 13  1  0
 12 14  1  0
 13 14  1  0
  4 15  1  0
  6 15  1  0
 14 16  1  1
  9 17  1  6
 12 18  1  0
 15 19  1  6
 17 19  1  0
 18 20  1  6
 18 21  1  0
 16 22  1  0
 20 22  1  0
  8 23  1  0
 21 23  1  0
  3 24  1  0
 23 24  1  1
M  END
$$$$
101
     RDKit          3D

 24 28  0  0  0  0  0  0  0  0999 V2000
   35.6310   31.7763   54.9744 C   0  0  0  0  0  0  0  0  0  0  0  0
   36.2654   32.7755   55.3225 N   0  0  0  0  0  0  0  0  0  0  0  0
   36.2588   33.2455   56.6693 C   0  0  0  0  0  0  0  0  0  0  0  0
   37.4328   33.1003   54.5738 C   0  0  2  0  0  0  0  0  0  0  0  0
   36.8295   34.4977   56.8321 N   0  0  0  0  0  0  0  0  0  0  0  0
   34.6545   31.2844   55.3986 O   0  0  0  0  0  0  0  0  0  0  0  0
   37.7426   35.0732   55.9814 C   0  0  0  0  0  0  0  0  0  0  0  0
   37.9756   34.3875   54.7752 C   0  0  1  0  0  0  0  0  0  0  0  0
   38.3816   36.3079   56.4111 C   0  0  0  0  0  0  0  0  0  0  0  0
   36.0696   30.8932   53.8969 C   0  0  1  0  0  0  0  0  0  0  0  0
   38.9451   35.1287   54.0159 C   0  0  1  0  0  0  0  0  0  0  0  0
   39.2967   34.6752   52.6128 C   0  0  0  0  0  0  0  0  0  0  0  0
   38.8069   33.4941   52.0478 C   0  0  0  0  0  0  0  0  0  0  0  0
   40.3023   35.5626   51.7438 C   0  0  2  0  0  0  0  0  0  0  0  0
   40.6679   36.7739   52.2051 C   0  0  0  0  0  0  0  0  0  0  0  0
   40.0049   35.3491   50.4125 O   0  0  0  0  0  0  0  0  0  0  0  0
   35.4568   32.7981   57.5221 O   0  0  0  0  0  0  0  0  0  0  0  0
   36.4119   35.1993   58.1697 C   0  0  0  0  0  0  0  0  0  0  0  0
   37.6917   32.5485   53.2727 C   0  0  2  0  0  0  0  0  0  0  0  0
   35.0245   30.2123   53.1115 C   0  0  0  0  0  0  0  0  0  0  0  0
   36.8519   31.7096   52.7820 C   0  0  0  0  0  0  0  0  0  0  0  0
   39.1958   36.9513   55.6093 C   0  0  0  0  0  0  0  0  0  0  0  0
   39.5005   36.4263   54.3380 C   0  0  0  0  0  0  0  0  0  0  0  0
   40.3271   37.2025   53.4871 C   0  0  0  0  0  0  0  0  0  0  0  0
  1  2  1  0
  2  3  1  0
  4  2  1  6
  3  5  1  0
  1  6  2  0
  5  7  1  0
  4  8  1  0
  8  7  1  1
  7  9  1  0
  1 10  1  0
  8 11  1  0
 11 12  1  6
 12 13  1  0
 12 14  1  0
 14 15  1  0
 14 16  1  6
  3 17  2  0
  5 18  1  0
  4 19  1  0
 19 13  1  6
 10 20  1  6
 10 21  1  0
 19 21  1  0
  9 22  1  0
 11 23  1  0
 22 23  1  0
 15 24  1  0
 23 24  1  0
M  END
$$$$
102
     RDKit          3D

 24 28  0  0  0  0  0  0  0  0999 V2000
   38.3536   33.1601   51.7483 C   0  0  0  0  0  0  0  0  0  0  0  0
   39.2535   34.1777   52.0521 C   0  0  1  0  0  0  0  0  0  0  0  0
   40.1160   34.7054   51.0231 N   0  0  0  0  0  0  0  0  0  0  0  0
   40.6041   35.8823   51.2420 N   0  0  0  0  0  0  0  0  0  0  0  0
   39.0685   35.2741   53.0264 C   0  0  1  0  0  0  0  0  0  0  0  0
   38.2836   35.2472   54.0764 C   0  0  2  0  0  0  0  0  0  0  0  0
   40.0126   36.2448   52.5333 C   0  0  0  0  0  0  0  0  0  0  0  0
   37.2907   32.6800   52.5876 C   0  0  0  0  0  0  0  0  0  0  0  0
   36.7305   33.5446   53.6577 C   0  0  2  0  0  0  0  0  0  0  0  0
   37.4933   34.5330   54.3869 C   0  0  2  0  0  0  0  0  0  0  0  0
   40.4270   37.5184   53.2553 C   0  0  0  0  0  0  0  0  0  0  0  0
   36.7121   34.6518   55.8514 C   0  0  2  0  0  0  0  0  0  0  0  0
   35.5311   32.8422   54.2461 O   0  0  0  0  0  0  0  0  0  0  0  0
   37.0998   35.8643   56.5528 C   0  0  1  0  0  0  0  0  0  0  0  0
   36.7110   36.0572   57.8946 C   0  0  0  0  0  0  0  0  0  0  0  0
   37.0727   37.2854   58.4945 C   0  0  0  0  0  0  0  0  0  0  0  0
   35.8816   33.7709   56.5349 C   0  0  0  0  0  0  0  0  0  0  0  0
   37.9696   38.0957   57.7409 C   0  0  0  0  0  0  0  0  0  0  0  0
   38.2894   36.4907   55.0095 C   0  0  0  0  0  0  0  0  0  0  0  0
   35.5587   32.0669   55.3246 C   0  0  0  0  0  0  0  0  0  0  0  0
   37.9013   36.7351   56.1536 C   0  0  0  0  0  0  0  0  0  0  0  0
   35.2558   30.8555   54.9974 O   0  0  0  0  0  0  0  0  0  0  0  0
   38.2993   37.7432   56.6046 C   0  0  0  0  0  0  0  0  0  0  0  0
   35.5391   32.5658   56.5406 N   0  0  0  0  0  0  0  0  0  0  0  0
  2  1  1  6
  2  3  1  0
  3  4  1  0
  2  5  1  0
  5  6  1  0
  4  7  1  0
  5  7  1  1
  1  8  1  0
  9  8  1  1
  6 10  1  0
 10  9  1  6
  7 11  1  0
 10 12  1  0
  9 13  1  0
 12 14  1  0
 14 15  1  1
 15 16  1  0
 12 17  1  1
 16 18  1  0
  6 19  1  6
 13 20  1  0
 14 21  1  0
 19 21  1  0
 20 22  2  0
 18 23  1  0
 21 23  1  0
 17 24  1  0
 20 24  1  0
M  END
$$$$
103
     RDKit          3D

 24 27  0  0  0  0  0  0  0  0999 V2000
   35.0329   30.9210   53.0522 O   0  0  0  0  0  0  0  0  0  0  0  0
   35.9482   31.6807   53.4067 C   0  0  0  0  0  0  0  0  0  0  0  0
   36.9207   32.0950   52.5101 C   0  0  0  0  0  0  0  0  0  0  0  0
   35.8187   32.4898   54.6177 N   0  0  0  0  0  0  0  0  0  0  0  0
   37.8452   33.1267   52.8266 C   0  0  1  0  0  0  0  0  0  0  0  0
   34.9028   32.1932   55.5570 O   0  0  0  0  0  0  0  0  0  0  0  0
   36.7683   33.5064   54.9204 C   0  0  1  0  0  0  0  0  0  0  0  0
   38.8569   33.5644   51.8471 C   0  0  0  0  0  0  0  0  0  0  0  0
   37.7359   33.8710   53.9920 C   0  0  2  0  0  0  0  0  0  0  0  0
   36.5371   34.2639   56.0322 N   0  0  0  0  0  0  0  0  0  0  0  0
   38.4133   35.1960   54.0502 C   0  0  2  0  0  0  0  0  0  0  0  0
   39.3760   35.4917   53.1362 C   0  0  0  0  0  0  0  0  0  0  0  0
   39.4916   34.8336   51.9578 C   0  0  1  0  0  0  0  0  0  0  0  0
   40.3961   35.2169   50.8702 N   0  0  0  0  0  0  0  0  0  0  0  0
   37.0989   35.4909   56.1729 C   0  0  1  0  0  0  0  0  0  0  0  0
   36.9159   36.1629   57.3642 C   0  0  2  0  0  0  0  0  0  0  0  0
   38.1146   35.8148   55.3593 C   0  0  0  0  0  0  0  0  0  0  0  0
   35.8692   35.8755   58.3131 C   0  0  0  0  0  0  0  0  0  0  0  0
   35.4659   36.8994   59.2361 C   0  0  1  0  0  0  0  0  0  0  0  0
   37.7049   37.3264   57.7074 C   0  0  0  0  0  0  0  0  0  0  0  0
   40.7149   36.5008   51.0334 O   0  0  0  0  0  0  0  0  0  0  0  0
   34.3038   36.6091   60.0743 C   0  0  0  0  0  0  0  0  0  0  0  0
   36.2488   37.9920   59.4782 C   0  0  0  0  0  0  0  0  0  0  0  0
   37.3369   38.1488   58.5928 C   0  0  0  0  0  0  0  0  0  0  0  0
  1  2  2  0
  2  3  1  0
  2  4  1  0
  5  3  1  6
  4  6  1  0
  4  7  1  0
  5  8  1  0
  9  5  1  6
  7  9  1  0
  7 10  1  6
  9 11  1  0
 11 12  1  1
  8 13  1  0
 12 13  1  0
 13 14  1  1
 10 15  1  0
 15 16  1  0
 11 17  1  0
 15 17  1  1
 16 18  1  6
 18 19  1  0
 16 20  1  0
 14 21  1  0
 19 22  1  1
 19 23  1  0
 20 24  1  0
 23 24  1  0
M  END
$$$$
104
     RDKit          3D

 24 28  0  0  0  0  0  0  0  0999 V2000
   40.5234   35.9614   51.1397 N   0  0  0  0  0  0  0  0  0  0  0  0
   39.6713   35.0294   51.4226 C   0  0  2  0  0  0  0  0  0  0  0  0
   39.1255   34.8170   52.3649 N   0  0  0  0  0  0  0  0  0  0  0  0
   40.3024   36.9475   52.2143 C   0  0  0  0  0  0  0  0  0  0  0  0
   39.8945   33.8447   50.3297 N   0  0  0  0  0  0  0  0  0  0  0  0
   39.0478   35.7742   53.2903 C   0  0  0  0  0  0  0  0  0  0  0  0
   41.1032   38.2314   52.0354 N   0  0  0  0  0  0  0  0  0  0  0  0
   38.1647   35.4757   54.4999 N   0  0  0  0  0  0  0  0  0  0  0  0
   38.1178   36.5501   55.4849 C   0  0  1  0  0  0  0  0  0  0  0  0
   37.3112   36.2545   56.5998 N   0  0  0  0  0  0  0  0  0  0  0  0
   38.8388   37.6746   55.5869 C   0  0  2  0  0  0  0  0  0  0  0  0
   37.3522   34.2741   54.7921 C   0  0  2  0  0  0  0  0  0  0  0  0
   39.6147   36.9682   53.2347 C   0  0  1  0  0  0  0  0  0  0  0  0
   36.5431   35.0492   56.7003 C   0  0  0  0  0  0  0  0  0  0  0  0
   35.7709   34.9179   57.8489 N   0  0  0  0  0  0  0  0  0  0  0  0
   37.4455   33.2414   53.6914 N   0  0  0  0  0  0  0  0  0  0  0  0
   36.6038   34.1051   55.7636 C   0  0  1  0  0  0  0  0  0  0  0  0
   38.8833   38.4914   56.6523 C   0  0  0  0  0  0  0  0  0  0  0  0
   39.6023   38.0383   54.2718 C   0  0  0  0  0  0  0  0  0  0  0  0
   35.6704   32.8721   55.9169 C   0  0  0  0  0  0  0  0  0  0  0  0
   35.6656   32.0294   54.8806 N   0  0  0  0  0  0  0  0  0  0  0  0
   36.6165   32.1628   53.8583 C   0  0  0  0  0  0  0  0  0  0  0  0
   35.0122   32.8128   56.9299 N   0  0  0  0  0  0  0  0  0  0  0  0
   35.0695   33.8675   57.9381 C   0  0  0  0  0  0  0  0  0  0  0  0
  1  2  1  0
  2  3  1  0
  1  4  1  0
  2  5  1  1
  3  6  1  0
  4  7  1  0
  6  8  1  0
  8  9  1  0
  9 10  1  1
  9 11  1  0
  8 12  1  0
  4 13  1  0
  6 13  1  0
 10 14  1  0
 14 15  1  0
 12 16  1  6
 12 17  1  0
 17 14  1  6
 11 18  1  6
 11 19  1  0
 13 19  1  1
 17 20  1  0
 20 21  1  0
 16 22  1  0
 21 22  1  0
 20 23  1  0
 15 24  1  0
 23 24  1  0
M  END
$$$$
105
     RDKit          3D

 24 27  0  0  0  0  0  0  0  0999 V2000
   35.0329   30.9210   53.0522 O   0  0  0  0  0  0  0  0  0  0  0  0
   35.9482   31.6807   53.4067 C   0  0  0  0  0  0  0  0  0  0  0  0
   36.9207   32.0950   52.5101 C   0  0  0  0  0  0  0  0  0  0  0  0
   35.8187   32.4898   54.6177 N   0  0  0  0  0  0  0  0  0  0  0  0
   37.8452   33.1267   52.8266 C   0  0  1  0  0  0  0  0  0  0  0  0
   34.9028   32.1932   55.5570 O   0  0  0  0  0  0  0  0  0  0  0  0
   36.7683   33.5064   54.9204 C   0  0  1  0  0  0  0  0  0  0  0  0
   38.8569   33.5644   51.8471 C   0  0  0  0  0  0  0  0  0  0  0  0
   37.7359   33.8710   53.9920 C   0  0  2  0  0  0  0  0  0  0  0  0
   36.5371   34.2639   56.0322 N   0  0  0  0  0  0  0  0  0  0  0  0
   38.4133   35.1960   54.0502 C   0  0  2  0  0  0  0  0  0  0  0  0
   39.3760   35.4917   53.1362 C   0  0  0  0  0  0  0  0  0  0  0  0
   39.4916   34.8336   51.9578 C   0  0  1  0  0  0  0  0  0  0  0  0
   40.3961   35.2169   50.8702 N   0  0  0  0  0  0  0  0  0  0  0  0
   37.0989   35.4909   56.1729 C   0  0  1  0  0  0  0  0  0  0  0  0
   36.9159   36.1629   57.3642 C   0  0  2  0  0  0  0  0  0  0  0  0
   38.1146   35.8148   55.3593 C   0  0  0  0  0  0  0  0  0  0  0  0
   35.8692   35.8755   58.3131 C   0  0  0  0  0  0  0  0  0  0  0  0
   35.4659   36.8994   59.2361 C   0  0  1  0  0  0  0  0  0  0  0  0
   37.7049   37.3264   57.7074 C   0  0  0  0  0  0  0  0  0  0  0  0
   40.7149   36.5008   51.0334 O   0  0  0  0  0  0  0  0  0  0  0  0
   34.3038   36.6091   60.0743 C   0  0  0  0  0  0  0  0  0  0  0  0
   36.4093   37.8708   59.5421 C   0  0  0  0  0  0  0  0  0  0  0  0
   37.3063   38.0706   58.7072 N   0  0  0  0  0  0  0  0  0  0  0  0
  1  2  2  0
  2  3  1  0
  2  4  1  0
  5  3  1  6
  4  6  1  0
  4  7  1  0
  5  8  1  0
  9  5  1  6
  7  9  1  0
  7 10  1  6
  9 11  1  0
 11 12  1  1
  8 13  1  0
 12 13  1  0
 13 14  1  1
 10 15  1  0
 15 16  1  0
 11 17  1  0
 15 17  1  1
 16 18  1  6
 18 19  1  0
 16 20  1  0
 14 21  1  0
 19 22  1  1
 19 23  1  0
 20 24  1  0
 23 24  1  0
M  END
$$$$
106
     RDKit          3D

 24 28  0  0  0  0  0  0  0  0999 V2000
   38.3536   33.1601   51.7483 C   0  0  0  0  0  0  0  0  0  0  0  0
   39.2535   34.1777   52.0521 C   0  0  1  0  0  0  0  0  0  0  0  0
   40.1160   34.7054   51.0231 N   0  0  0  0  0  0  0  0  0  0  0  0
   40.6041   35.8823   51.2420 N   0  0  0  0  0  0  0  0  0  0  0  0
   39.0685   35.2741   53.0264 C   0  0  1  0  0  0  0  0  0  0  0  0
   38.2836   35.2472   54.0764 C   0  0  1  0  0  0  0  0  0  0  0  0
   40.0126   36.2448   52.5333 C   0  0  2  0  0  0  0  0  0  0  0  0
   37.2907   32.6800   52.5876 C   0  0  0  0  0  0  0  0  0  0  0  0
   36.7305   33.5446   53.6577 C   0  0  1  0  0  0  0  0  0  0  0  0
   40.3313   37.5716   53.1938 C   0  0  0  0  0  0  0  0  0  0  0  0
   35.6459   32.6907   54.4184 O   0  0  0  0  0  0  0  0  0  0  0  0
   35.8771   32.0724   55.3337 C   0  0  0  0  0  0  0  0  0  0  0  0
   37.3917   34.5364   54.4766 C   0  0  2  0  0  0  0  0  0  0  0  0
   36.5114   34.7987   55.6401 N   0  0  0  0  0  0  0  0  0  0  0  0
   38.8381   36.3505   55.0392 C   0  0  2  0  0  0  0  0  0  0  0  0
   36.6129   36.0678   56.1925 C   0  0  2  0  0  0  0  0  0  0  0  0
   37.9075   36.6890   56.1187 C   0  0  2  0  0  0  0  0  0  0  0  0
   38.0750   38.0918   56.5912 C   0  0  0  0  0  0  0  0  0  0  0  0
   35.6493   36.5226   57.0518 C   0  0  0  0  0  0  0  0  0  0  0  0
   34.4872   35.7638   57.4148 O   0  0  0  0  0  0  0  0  0  0  0  0
   39.7066   37.4742   54.6154 C   0  0  2  0  0  0  0  0  0  0  0  0
   39.3189   38.6591   56.4738 C   0  0  0  0  0  0  0  0  0  0  0  0
   39.9023   38.6200   55.3847 C   0  0  0  0  0  0  0  0  0  0  0  0
   35.0384   37.7597   56.8079 O   0  0  0  0  0  0  0  0  0  0  0  0
  2  1  1  6
  2  3  1  0
  3  4  1  0
  5  2  1  1
  5  6  1  0
  4  7  1  0
  5  7  1  0
  1  8  1  0
  8  9  1  0
  7 10  1  6
  9 11  1  1
 11 12  1  0
  6 13  1  1
  9 13  1  0
 13 14  1  6
  6 15  1  0
 14 16  1  0
 15 17  1  0
 16 17  1  0
 17 18  1  6
 16 19  1  1
 19 20  1  0
 21 10  1  6
 15 21  1  6
 18 22  1  0
 21 23  1  0
 22 23  1  0
 19 24  2  0
M  END
$$$$
107
     RDKit          3D

 24 28  0  0  0  0  0  0  0  0999 V2000
   35.6310   31.7763   54.9744 C   0  0  0  0  0  0  0  0  0  0  0  0
   36.2654   32.7755   55.3225 C   0  0  0  0  0  0  0  0  0  0  0  0
   35.5410   31.3666   53.6325 C   0  0  1  0  0  0  0  0  0  0  0  0
   36.3462   31.9929   52.7154 C   0  0  0  0  0  0  0  0  0  0  0  0
   34.6733   30.1126   53.1437 C   0  0  0  0  0  0  0  0  0  0  0  0
   37.2139   33.0537   53.1453 C   0  0  0  0  0  0  0  0  0  0  0  0
   37.1349   33.4703   54.4482 C   0  0  1  0  0  0  0  0  0  0  0  0
   38.2135   33.7757   52.1743 C   0  0  0  0  0  0  0  0  0  0  0  0
   37.9335   34.6378   54.6638 C   0  0  1  0  0  0  0  0  0  0  0  0
   36.1312   33.2464   56.7201 C   0  0  0  0  0  0  0  0  0  0  0  0
   38.3718   33.2868   50.8437 N   0  0  0  0  0  0  0  0  0  0  0  0
   37.9478   35.2476   56.0252 C   0  0  2  0  0  0  0  0  0  0  0  0
   38.9019   34.8230   52.6114 C   0  0  1  0  0  0  0  0  0  0  0  0
   39.3381   33.8771   50.2955 C   0  0  0  0  0  0  0  0  0  0  0  0
   38.7923   35.2352   53.7855 C   0  0  0  0  0  0  0  0  0  0  0  0
   36.9650   34.5680   57.0115 C   0  0  2  0  0  0  0  0  0  0  0  0
   39.7574   34.9852   51.2788 N   0  0  0  0  0  0  0  0  0  0  0  0
   36.8666   35.1034   58.3499 C   0  0  1  0  0  0  0  0  0  0  0  0
   37.3406   36.3737   58.6523 C   0  0  0  0  0  0  0  0  0  0  0  0
   40.5593   36.0566   51.1555 N   0  0  0  0  0  0  0  0  0  0  0  0
   40.5002   37.0305   52.1541 O   0  0  0  0  0  0  0  0  0  0  0  0
   35.5084   34.8653   58.7801 O   0  0  0  0  0  0  0  0  0  0  0  0
   38.5081   36.8565   57.9175 C   0  0  0  0  0  0  0  0  0  0  0  0
   38.5851   36.3528   56.5309 C   0  0  0  0  0  0  0  0  0  0  0  0
  1  2  1  0
  1  3  1  0
  3  4  1  0
  3  5  1  1
  4  6  1  0
  7  2  1  6
  6  7  1  0
  6  8  1  0
  7  9  1  0
  2 10  1  0
  8 11  1  0
  9 12  1  0
  8 13  1  0
 11 14  1  0
  9 15  1  1
 13 15  1  1
 16 10  1  1
 12 16  1  0
 13 17  1  0
 14 17  1  0
 16 18  1  0
 18 19  1  0
 17 20  1  0
 20 21  1  0
 18 22  1  6
 19 23  1  0
 12 24  1  6
 23 24  1  0
M  END
$$$$
108
     RDKit          3D

 24 28  0  0  0  0  0  0  0  0999 V2000
   39.1377   34.1609   51.4666 N   0  0  0  0  0  0  0  0  0  0  0  0
   38.2703   33.6224   52.1495 C   0  0  1  0  0  0  0  0  0  0  0  0
   37.9869   33.9823   53.1977 C   0  0  2  0  0  0  0  0  0  0  0  0
   37.2021   32.7673   51.7093 N   0  0  0  0  0  0  0  0  0  0  0  0
   38.7275   34.9187   53.8326 C   0  0  2  0  0  0  0  0  0  0  0  0
   38.5143   35.4765   55.2183 N   0  0  0  0  0  0  0  0  0  0  0  0
   36.5271   32.0513   52.6600 C   0  0  1  0  0  0  0  0  0  0  0  0
   37.0823   33.3046   54.1126 C   0  0  2  0  0  0  0  0  0  0  0  0
   35.5713   31.3810   52.9928 N   0  0  0  0  0  0  0  0  0  0  0  0
   37.4749   34.7741   55.9444 C   0  0  2  0  0  0  0  0  0  0  0  0
   39.2466   36.5433   55.7692 C   0  0  1  0  0  0  0  0  0  0  0  0
   36.7869   33.6797   55.3082 C   0  0  2  0  0  0  0  0  0  0  0  0
   37.0900   35.5004   57.0787 N   0  0  0  0  0  0  0  0  0  0  0  0
   39.8218   35.6918   53.1986 N   0  0  0  0  0  0  0  0  0  0  0  0
   35.7447   32.8801   56.1519 C   0  0  0  0  0  0  0  0  0  0  0  0
   39.9549   37.2446   54.7307 C   0  0  0  0  0  0  0  0  0  0  0  0
   39.9537   35.2276   51.8449 C   0  0  0  0  0  0  0  0  0  0  0  0
   40.3341   36.7942   53.5302 C   0  0  0  0  0  0  0  0  0  0  0  0
   40.9192   35.7610   50.9844 O   0  0  0  0  0  0  0  0  0  0  0  0
   37.4541   36.6453   57.5440 C   0  0  2  0  0  0  0  0  0  0  0  0
   38.7179   37.1451   56.9477 C   0  0  0  0  0  0  0  0  0  0  0  0
   37.0252   37.2343   58.6674 O   0  0  0  0  0  0  0  0  0  0  0  0
   37.0012   38.4996   58.8043 C   0  0  0  0  0  0  0  0  0  0  0  0
   35.9070   39.1111   57.7876 C   0  0  0  0  0  0  0  0  0  0  0  0
  2  1  1  6
  3  2  1  1
  2  4  1  0
  3  5  1  0
  5  6  1  0
  4  7  1  0
  3  8  1  0
  8  7  1  6
  7  9  1  6
  6 10  1  0
  6 11  1  0
  8 12  1  0
 10 12  1  0
 10 13  1  6
  5 14  1  6
 12 15  1  1
 11 16  1  6
  1 17  1  0
 14 17  1  0
 14 18  1  0
 16 18  1  0
 17 19  2  0
 13 20  1  0
 11 21  1  0
 20 21  1  0
 20 22  1  1
 22 23  1  0
 23 24  1  0
M  END
$$$$
109
     RDKit          3D

 24 27  0  0  0  0  0  0  0  0999 V2000
   35.6310   31.7763   54.9744 C   0  0  0  0  0  0  0  0  0  0  0  0
   36.2654   32.7755   55.3225 N   0  0  0  0  0  0  0  0  0  0  0  0
   36.2588   33.2455   56.6693 C   0  0  0  0  0  0  0  0  0  0  0  0
   37.4328   33.1003   54.5738 C   0  0  0  0  0  0  0  0  0  0  0  0
   36.8295   34.4977   56.8321 N   0  0  0  0  0  0  0  0  0  0  0  0
   34.6545   31.2844   55.3986 O   0  0  0  0  0  0  0  0  0  0  0  0
   37.7426   35.0732   55.9814 C   0  0  0  0  0  0  0  0  0  0  0  0
   37.9756   34.3875   54.7752 C   0  0  1  0  0  0  0  0  0  0  0  0
   38.3816   36.3079   56.4111 C   0  0  0  0  0  0  0  0  0  0  0  0
   36.0696   30.8932   53.8969 C   0  0  0  0  0  0  0  0  0  0  0  0
   38.9451   35.1287   54.0159 C   0  0  1  0  0  0  0  0  0  0  0  0
   39.2967   34.6752   52.6128 C   0  0  0  0  0  0  0  0  0  0  0  0
   38.8069   33.4941   52.0478 C   0  0  0  0  0  0  0  0  0  0  0  0
   40.3023   35.5626   51.7438 C   0  0  0  0  0  0  0  0  0  0  0  0
   40.6679   36.7739   52.2051 C   0  0  0  0  0  0  0  0  0  0  0  0
   39.0784   36.9985   55.3722 C   0  0  1  0  0  0  0  0  0  0  0  0
   40.5701   35.0270   50.5769 O   0  0  0  0  0  0  0  0  0  0  0  0
   35.0046   30.3246   53.0780 C   0  0  0  0  0  0  0  0  0  0  0  0
   39.7520   38.2581   55.7792 C   0  0  0  0  0  0  0  0  0  0  0  0
   40.4975   38.9181   54.8335 C   0  0  0  0  0  0  0  0  0  0  0  0
   39.3027   36.5465   54.2125 C   0  0  1  0  0  0  0  0  0  0  0  0
   35.4398   32.8638   57.4946 O   0  0  0  0  0  0  0  0  0  0  0  0
   40.0616   37.3869   53.3220 C   0  0  1  0  0  0  0  0  0  0  0  0
   40.7097   38.5455   53.7087 C   0  0  0  0  0  0  0  0  0  0  0  0
  1  2  1  0
  2  3  1  0
  2  4  1  0
  3  5  1  0
  1  6  2  0
  5  7  1  0
  8  4  1  1
  7  8  1  0
  7  9  1  0
  1 10  1  0
  8 11  1  0
 11 12  1  6
 12 13  1  0
 12 14  1  0
 14 15  1  0
 16  9  1  1
 14 17  2  0
 10 18  1  0
 16 19  1  0
 19 20  1  0
 11 21  1  0
 21 16  1  1
  3 22  2  0
 23 15  1  1
 21 23  1  0
 20 24  1  0
 23 24  1  0
M  END
$$$$
11
     RDKit          3D

 17 19  0  0  0  0  0  0  0  0999 V2000
   40.5234   35.9614   51.1397 N   0  0  0  0  0  0  0  0  0  0  0  0
   39.6713   35.0294   51.4226 C   0  0  2  0  0  0  0  0  0  0  0  0
   39.1255   34.8170   52.3649 N   0  0  0  0  0  0  0  0  0  0  0  0
   39.7477   33.9833   50.3577 N   0  0  0  0  0  0  0  0  0  0  0  0
   39.1439   35.7832   53.4371 C   0  0  2  0  0  0  0  0  0  0  0  0
   40.4793   37.0412   52.1101 C   0  0  0  0  0  0  0  0  0  0  0  0
   38.3969   35.6115   54.6611 N   0  0  0  0  0  0  0  0  0  0  0  0
   39.7282   36.9710   53.4130 C   0  0  2  0  0  0  0  0  0  0  0  0
   38.6098   36.7898   55.4215 C   0  0  0  0  0  0  0  0  0  0  0  0
   37.4563   34.7191   54.9670 C   0  0  1  0  0  0  0  0  0  0  0  0
   39.4806   37.5880   54.6000 N   0  0  0  0  0  0  0  0  0  0  0  0
   37.5620   33.3908   55.0996 C   0  0  0  0  0  0  0  0  0  0  0  0
   36.2062   35.1087   55.6289 O   0  0  0  0  0  0  0  0  0  0  0  0
   36.4184   32.6167   55.0220 C   0  0  0  0  0  0  0  0  0  0  0  0
   35.2562   33.2277   55.3715 C   0  0  1  0  0  0  0  0  0  0  0  0
   34.1632   32.2632   55.4687 O   0  0  0  0  0  0  0  0  0  0  0  0
   35.1745   34.4550   55.6617 C   0  0  0  0  0  0  0  0  0  0  0  0
  1  2  1  0
  2  3  1  0
  2  4  1  1
  5  3  1  6
  1  6  1  0
  5  7  1  0
  5  8  1  0
  8  6  1  1
  7  9  1  0
 10  7  1  1
  8 11  1  0
  9 11  1  0
 10 12  1  0
 10 13  1  0
 12 14  1  0
 14 15  1  0
 15 16  1  1
 13 17  1  0
 15 17  1  0
M  END
$$$$
110
     RDKit          3D

 24 28  0  0  0  0  0  0  0  0999 V2000
   35.6310   31.7763   54.9744 C   0  0  0  0  0  0  0  0  0  0  0  0
   36.2654   32.7755   55.3225 C   0  0  0  0  0  0  0  0  0  0  0  0
   35.5410   31.3666   53.6325 C   0  0  1  0  0  0  0  0  0  0  0  0
   36.3462   31.9929   52.7154 C   0  0  0  0  0  0  0  0  0  0  0  0
   34.6733   30.1126   53.1437 C   0  0  0  0  0  0  0  0  0  0  0  0
   37.2139   33.0537   53.1453 C   0  0  0  0  0  0  0  0  0  0  0  0
   37.1349   33.4703   54.4482 C   0  0  1  0  0  0  0  0  0  0  0  0
   38.2135   33.7757   52.1743 C   0  0  0  0  0  0  0  0  0  0  0  0
   37.9335   34.6378   54.6638 C   0  0  0  0  0  0  0  0  0  0  0  0
   36.1312   33.2464   56.7201 C   0  0  2  0  0  0  0  0  0  0  0  0
   38.3718   33.2868   50.8437 N   0  0  0  0  0  0  0  0  0  0  0  0
   37.9478   35.2476   56.0252 C   0  0  1  0  0  0  0  0  0  0  0  0
   38.5456   36.3158   56.4713 C   0  0  0  0  0  0  0  0  0  0  0  0
   39.4167   33.8673   50.2789 C   0  0  0  0  0  0  0  0  0  0  0  0
   35.4261   32.8292   57.7046 O   0  0  0  0  0  0  0  0  0  0  0  0
   36.7823   34.7476   56.8771 C   0  0  2  0  0  0  0  0  0  0  0  0
   36.3192   35.4690   58.1645 C   0  0  2  0  0  0  0  0  0  0  0  0
   38.2245   37.0540   57.5627 C   0  0  0  0  0  0  0  0  0  0  0  0
   39.7278   35.1427   50.9763 C   0  0  0  0  0  0  0  0  0  0  0  0
   35.2893   35.1033   58.8973 O   0  0  0  0  0  0  0  0  0  0  0  0
   37.1599   36.6514   58.3926 C   0  0  0  0  0  0  0  0  0  0  0  0
   38.9759   34.8833   52.3624 C   0  0  0  0  0  0  0  0  0  0  0  0
   39.0975   35.6829   53.6142 S   0  0  0  0  0  0  0  0  0  0  0  0
   34.1927   35.7410   58.7339 C   0  0  0  0  0  0  0  0  0  0  0  0
  1  2  1  0
  1  3  1  0
  3  4  1  0
  3  5  1  1
  4  6  1  0
  7  2  1  6
  6  7  1  0
  6  8  1  0
  7  9  1  0
  2 10  1  0
  8 11  1  0
  9 12  1  0
 12 13  1  6
 11 14  1  0
 10 15  1  6
 16 10  1  1
 12 16  1  0
 16 17  1  0
 13 18  1  0
 14 19  1  0
 17 20  1  6
 17 21  1  0
 18 21  1  0
  8 22  1  0
 19 22  1  0
  9 23  1  0
 22 23  1  0
 20 24  1  0
M  END
$$$$
111
     RDKit          3D

 24 26  0  0  0  0  0  0  0  0999 V2000
   34.9931   30.8804   53.4429 C   0  0  0  0  0  0  0  0  0  0  0  0
   34.6769   31.1653   54.5850 N   0  0  0  0  0  0  0  0  0  0  0  0
   34.1627   30.1054   52.6809 O   0  0  0  0  0  0  0  0  0  0  0  0
   36.1715   31.3687   52.7832 C   0  0  0  0  0  0  0  0  0  0  0  0
   36.7709   32.3834   53.4813 C   0  0  2  0  0  0  0  0  0  0  0  0
   37.9068   33.0987   52.9284 C   0  0  1  0  0  0  0  0  0  0  0  0
   36.4127   32.7851   54.7798 C   0  0  2  0  0  0  0  0  0  0  0  0
   35.4028   32.1145   55.2387 C   0  0  0  0  0  0  0  0  0  0  0  0
   37.1925   33.8896   55.2409 C   0  0  0  0  0  0  0  0  0  0  0  0
   35.1281   32.4518   56.6017 O   0  0  0  0  0  0  0  0  0  0  0  0
   38.3881   32.9754   51.6171 C   0  0  0  0  0  0  0  0  0  0  0  0
   39.3427   33.9281   51.1270 N   0  0  0  0  0  0  0  0  0  0  0  0
   37.0281   34.5672   56.3766 N   0  0  0  0  0  0  0  0  0  0  0  0
   38.2182   34.1948   54.1852 S   0  0  0  0  0  0  0  0  0  0  0  0
   39.4462   35.1864   51.1492 C   0  0  0  0  0  0  0  0  0  0  0  0
   39.0168   35.9133   52.2076 O   0  0  0  0  0  0  0  0  0  0  0  0
   40.5333   35.8850   50.5187 O   0  0  0  0  0  0  0  0  0  0  0  0
   36.2416   34.4388   57.4027 C   0  0  0  0  0  0  0  0  0  0  0  0
   35.9069   35.4729   58.1633 C   0  0  0  0  0  0  0  0  0  0  0  0
   37.5628   35.9664   56.2750 C   0  0  0  0  0  0  0  0  0  0  0  0
   38.3977   36.4463   55.5982 O   0  0  0  0  0  0  0  0  0  0  0  0
   36.7997   36.8500   57.2999 C   0  0  1  0  0  0  0  0  0  0  0  0
   39.7018   37.0583   52.6432 C   0  0  0  0  0  0  0  0  0  0  0  0
   35.9217   37.6675   56.9004 N   0  0  0  0  0  0  0  0  0  0  0  0
  1  2  1  0
  1  3  2  0
  1  4  1  0
  5  4  1  1
  5  6  1  0
  5  7  1  0
  2  8  1  0
  7  8  1  0
  7  9  1  6
  8 10  2  0
  6 11  1  6
 11 12  1  0
  9 13  1  0
  6 14  1  0
  9 14  1  0
 12 15  1  0
 15 16  1  0
 15 17  2  0
 13 18  1  0
 18 19  1  0
 13 20  1  0
 20 21  2  0
 19 22  1  0
 20 22  1  0
 16 23  1  0
 22 24  1  6
M  END
$$$$
112
     RDKit          3D

 24 28  0  0  0  0  0  0  0  0999 V2000
   35.0329   30.9210   53.0522 O   0  0  0  0  0  0  0  0  0  0  0  0
   35.9482   31.6807   53.4067 C   0  0  0  0  0  0  0  0  0  0  0  0
   36.9207   32.0950   52.5101 C   0  0  0  0  0  0  0  0  0  0  0  0
   35.8187   32.4898   54.6177 N   0  0  0  0  0  0  0  0  0  0  0  0
   37.8452   33.1267   52.8266 C   0  0  1  0  0  0  0  0  0  0  0  0
   34.9028   32.1932   55.5570 O   0  0  0  0  0  0  0  0  0  0  0  0
   36.7683   33.5064   54.9204 C   0  0  0  0  0  0  0  0  0  0  0  0
   38.8569   33.5644   51.8471 C   0  0  1  0  0  0  0  0  0  0  0  0
   37.7359   33.8710   53.9920 C   0  0  2  0  0  0  0  0  0  0  0  0
   36.5894   34.0579   56.2360 C   0  0  0  0  0  0  0  0  0  0  0  0
   38.5703   35.0365   54.2057 C   0  0  2  0  0  0  0  0  0  0  0  0
   38.4889   35.8134   55.4069 C   0  0  1  0  0  0  0  0  0  0  0  0
   37.4645   35.2754   56.3913 C   0  0  0  0  0  0  0  0  0  0  0  0
   37.3415   36.1245   57.8152 C   0  0  1  0  0  0  0  0  0  0  0  0
   39.3108   36.8830   55.6741 C   0  0  0  0  0  0  0  0  0  0  0  0
   35.8158   33.7400   57.3655 C   0  0  0  0  0  0  0  0  0  0  0  0
   39.3762   35.7665   53.4025 C   0  0  2  0  0  0  0  0  0  0  0  0
   35.7306   34.4175   58.4772 C   0  0  0  0  0  0  0  0  0  0  0  0
   39.0600   32.9953   50.6831 N   0  0  0  0  0  0  0  0  0  0  0  0
   39.5726   35.1611   51.9791 C   0  0  1  0  0  0  0  0  0  0  0  0
   39.9429   36.8080   53.9446 C   0  0  0  0  0  0  0  0  0  0  0  0
   38.0048   37.2832   57.8762 O   0  0  0  0  0  0  0  0  0  0  0  0
   36.4925   35.6054   58.6779 C   0  0  0  0  0  0  0  0  0  0  0  0
   40.3604   35.6244   51.0300 N   0  0  0  0  0  0  0  0  0  0  0  0
  1  2  2  0
  2  3  1  0
  2  4  1  0
  5  3  1  6
  4  6  1  0
  4  7  1  0
  5  8  1  0
  5  9  1  0
  9  7  1  6
  7 10  1  0
  9 11  1  0
 11 12  1  6
 10 13  1  0
 12 13  1  0
 13 14  1  0
 12 15  1  1
 10 16  1  0
 11 17  1  0
 16 18  1  0
  8 19  1  6
  8 20  1  0
 17 20  1  0
 15 21  1  0
 17 21  1  1
 14 22  1  6
 14 23  1  0
 18 23  1  0
 20 24  1  1
M  END
$$$$
113
     RDKit          3D

 24 27  0  0  0  0  0  0  0  0999 V2000
   35.0329   30.9210   53.0522 O   0  0  0  0  0  0  0  0  0  0  0  0
   35.9482   31.6807   53.4067 C   0  0  0  0  0  0  0  0  0  0  0  0
   36.9207   32.0950   52.5101 C   0  0  0  0  0  0  0  0  0  0  0  0
   35.8187   32.4898   54.6177 N   0  0  0  0  0  0  0  0  0  0  0  0
   37.8452   33.1267   52.8266 C   0  0  1  0  0  0  0  0  0  0  0  0
   34.9028   32.1932   55.5570 O   0  0  0  0  0  0  0  0  0  0  0  0
   36.7683   33.5064   54.9204 C   0  0  0  0  0  0  0  0  0  0  0  0
   38.8569   33.5644   51.8471 C   0  0  0  0  0  0  0  0  0  0  0  0
   37.7359   33.8710   53.9920 C   0  0  2  0  0  0  0  0  0  0  0  0
   36.5894   34.0579   56.2360 C   0  0  1  0  0  0  0  0  0  0  0  0
   38.5703   35.0365   54.2057 C   0  0  0  0  0  0  0  0  0  0  0  0
   38.4889   35.8134   55.4069 C   0  0  1  0  0  0  0  0  0  0  0  0
   37.4645   35.2754   56.3913 C   0  0  0  0  0  0  0  0  0  0  0  0
   37.3415   36.1245   57.8152 C   0  0  0  0  0  0  0  0  0  0  0  0
   39.3108   36.8830   55.6741 C   0  0  0  0  0  0  0  0  0  0  0  0
   35.6402   33.9184   57.1926 O   0  0  0  0  0  0  0  0  0  0  0  0
   39.5357   35.5368   53.3387 C   0  0  0  0  0  0  0  0  0  0  0  0
   39.5888   34.7290   52.0709 C   0  0  1  0  0  0  0  0  0  0  0  0
   38.2652   37.1653   57.9293 C   0  0  2  0  0  0  0  0  0  0  0  0
   38.1173   37.8577   59.1669 O   0  0  0  0  0  0  0  0  0  0  0  0
   40.5149   35.1706   51.0482 O   0  0  0  0  0  0  0  0  0  0  0  0
   40.0545   36.4179   50.4393 C   0  0  0  0  0  0  0  0  0  0  0  0
   39.0096   37.7010   56.8045 C   0  0  0  0  0  0  0  0  0  0  0  0
   36.9646   37.7808   59.8960 C   0  0  0  0  0  0  0  0  0  0  0  0
  1  2  2  0
  2  3  1  0
  2  4  1  0
  5  3  1  6
  4  6  1  0
  4  7  1  0
  5  8  1  0
  5  9  1  0
  9  7  1  6
  7 10  1  0
  9 11  1  0
 11 12  1  0
 10 13  1  0
 12 13  1  0
 13 14  1  0
 12 15  1  1
 10 16  1  6
 11 17  1  0
  8 18  1  0
 17 18  1  0
 14 19  1  0
 19 20  1  6
 18 21  1  1
 21 22  1  0
 15 23  1  0
 19 23  1  0
 20 24  1  0
M  END
$$$$
114
     RDKit          3D

 24 28  0  0  0  0  0  0  0  0999 V2000
   35.0329   30.9210   53.0522 O   0  0  0  0  0  0  0  0  0  0  0  0
   35.9482   31.6807   53.4067 C   0  0  0  0  0  0  0  0  0  0  0  0
   36.9207   32.0950   52.5101 C   0  0  0  0  0  0  0  0  0  0  0  0
   35.8187   32.4898   54.6177 N   0  0  0  0  0  0  0  0  0  0  0  0
   37.8452   33.1267   52.8266 C   0  0  1  0  0  0  0  0  0  0  0  0
   34.9028   32.1932   55.5570 O   0  0  0  0  0  0  0  0  0  0  0  0
   36.7683   33.5064   54.9204 C   0  0  0  0  0  0  0  0  0  0  0  0
   38.8569   33.5644   51.8471 C   0  0  1  0  0  0  0  0  0  0  0  0
   37.7359   33.8710   53.9920 C   0  0  2  0  0  0  0  0  0  0  0  0
   36.5894   34.0579   56.2360 C   0  0  0  0  0  0  0  0  0  0  0  0
   38.5703   35.0365   54.2057 C   0  0  2  0  0  0  0  0  0  0  0  0
   38.4889   35.8134   55.4069 C   0  0  1  0  0  0  0  0  0  0  0  0
   37.4645   35.2754   56.3913 C   0  0  0  0  0  0  0  0  0  0  0  0
   37.3415   36.1245   57.8152 C   0  0  0  0  0  0  0  0  0  0  0  0
   39.3108   36.8830   55.6741 C   0  0  0  0  0  0  0  0  0  0  0  0
   35.8158   33.7400   57.3655 C   0  0  0  0  0  0  0  0  0  0  0  0
   39.3762   35.7665   53.4025 C   0  0  0  0  0  0  0  0  0  0  0  0
   35.7306   34.4175   58.4772 C   0  0  0  0  0  0  0  0  0  0  0  0
   39.0600   32.9953   50.6831 N   0  0  0  0  0  0  0  0  0  0  0  0
   39.3403   34.9938   51.9796 C   0  0  0  0  0  0  0  0  0  0  0  0
   40.1641   36.9275   53.4744 C   0  0  0  0  0  0  0  0  0  0  0  0
   40.0911   37.4437   54.7010 C   0  0  0  0  0  0  0  0  0  0  0  0
   36.4834   35.6028   58.6625 C   0  0  0  0  0  0  0  0  0  0  0  0
   40.1413   35.3678   50.9353 O   0  0  0  0  0  0  0  0  0  0  0  0
  1  2  2  0
  2  3  1  0
  2  4  1  0
  5  3  1  6
  4  6  1  0
  4  7  1  0
  5  8  1  0
  5  9  1  0
  9  7  1  6
  7 10  1  0
  9 11  1  0
 11 12  1  0
 10 13  1  0
 12 13  1  0
 13 14  1  0
 12 15  1  1
 10 16  1  0
 11 17  1  6
 16 18  1  0
  8 19  1  6
  8 20  1  0
 17 20  1  0
 17 21  1  0
 15 22  1  0
 21 22  1  0
 14 23  1  0
 18 23  1  0
 20 24  2  0
M  END
$$$$
115
     RDKit          3D

 24 28  0  0  0  0  0  0  0  0999 V2000
   35.0329   30.9210   53.0522 O   0  0  0  0  0  0  0  0  0  0  0  0
   35.9482   31.6807   53.4067 C   0  0  0  0  0  0  0  0  0  0  0  0
   36.9207   32.0950   52.5101 C   0  0  0  0  0  0  0  0  0  0  0  0
   35.8187   32.4898   54.6177 N   0  0  0  0  0  0  0  0  0  0  0  0
   37.8452   33.1267   52.8266 C   0  0  1  0  0  0  0  0  0  0  0  0
   34.9028   32.1932   55.5570 O   0  0  0  0  0  0  0  0  0  0  0  0
   36.7683   33.5064   54.9204 C   0  0  0  0  0  0  0  0  0  0  0  0
   38.8569   33.5644   51.8471 C   0  0  1  0  0  0  0  0  0  0  0  0
   37.7359   33.8710   53.9920 C   0  0  2  0  0  0  0  0  0  0  0  0
   36.5894   34.0579   56.2360 C   0  0  0  0  0  0  0  0  0  0  0  0
   38.5703   35.0365   54.2057 C   0  0  2  0  0  0  0  0  0  0  0  0
   38.4889   35.8134   55.4069 C   0  0  1  0  0  0  0  0  0  0  0  0
   37.4645   35.2754   56.3913 C   0  0  0  0  0  0  0  0  0  0  0  0
   37.3415   36.1245   57.8152 C   0  0  0  0  0  0  0  0  0  0  0  0
   39.3108   36.8830   55.6741 C   0  0  0  0  0  0  0  0  0  0  0  0
   35.8158   33.7400   57.3655 C   0  0  0  0  0  0  0  0  0  0  0  0
   39.3762   35.7665   53.4025 C   0  0  0  0  0  0  0  0  0  0  0  0
   35.7306   34.4175   58.4772 C   0  0  0  0  0  0  0  0  0  0  0  0
   39.0600   32.9953   50.6831 N   0  0  0  0  0  0  0  0  0  0  0  0
   39.3403   34.9938   51.9796 C   0  0  1  0  0  0  0  0  0  0  0  0
   40.0854   37.3295   54.6689 C   0  0  0  0  0  0  0  0  0  0  0  0
   40.2207   35.4841   50.8632 C   0  0  0  0  0  0  0  0  0  0  0  0
   36.5214   35.6253   58.6767 C   0  0  0  0  0  0  0  0  0  0  0  0
   40.1104   36.8087   53.5050 C   0  0  0  0  0  0  0  0  0  0  0  0
  1  2  2  0
  2  3  1  0
  2  4  1  0
  5  3  1  6
  4  6  1  0
  4  7  1  0
  5  8  1  0
  5  9  1  0
  9  7  1  6
  7 10  1  0
  9 11  1  0
 11 12  1  0
 10 13  1  0
 12 13  1  0
 13 14  1  0
 12 15  1  1
 10 16  1  0
 11 17  1  6
 16 18  1  0
  8 19  1  6
  8 20  1  0
 17 20  1  0
 15 21  1  0
 20 22  1  1
 14 23  1  0
 18 23  1  0
 17 24  1  0
 21 24  1  0
M  END
$$$$
116
     RDKit          3D

 24 27  0  0  0  0  0  0  0  0999 V2000
   34.9931   30.8804   53.4429 C   0  0  0  0  0  0  0  0  0  0  0  0
   34.6769   31.1653   54.5850 C   0  0  0  0  0  0  0  0  0  0  0  0
   35.7133   32.0808   55.0873 C   0  0  2  0  0  0  0  0  0  0  0  0
   35.8095   32.7196   56.3709 N   0  0  0  0  0  0  0  0  0  0  0  0
   36.6380   33.6939   56.6293 C   0  0  1  0  0  0  0  0  0  0  0  0
   36.4479   32.8370   54.1784 N   0  0  0  0  0  0  0  0  0  0  0  0
   35.7289   31.5315   52.5674 C   0  0  0  0  0  0  0  0  0  0  0  0
   37.2741   33.8631   54.7791 C   0  0  0  0  0  0  0  0  0  0  0  0
   37.3515   34.2855   55.9069 C   0  0  0  0  0  0  0  0  0  0  0  0
   38.2207   34.5109   53.7139 C   0  0  0  0  0  0  0  0  0  0  0  0
   38.3359   33.9065   52.4704 C   0  0  2  0  0  0  0  0  0  0  0  0
   36.5429   32.4220   52.9341 C   0  0  0  0  0  0  0  0  0  0  0  0
   39.2252   34.5281   51.4408 C   0  0  0  0  0  0  0  0  0  0  0  0
   39.0027   35.7250   54.0594 C   0  0  0  0  0  0  0  0  0  0  0  0
   39.8536   36.2648   53.0013 C   0  0  0  0  0  0  0  0  0  0  0  0
   39.9021   35.6785   51.7982 C   0  0  0  0  0  0  0  0  0  0  0  0
   37.5155   32.8580   52.0214 N   0  0  0  0  0  0  0  0  0  0  0  0
   40.7261   36.2803   50.8725 O   0  0  0  0  0  0  0  0  0  0  0  0
   36.4247   34.1763   58.1384 N   0  0  0  0  0  0  0  0  0  0  0  0
   36.4533   35.5024   58.3167 C   0  0  0  0  0  0  0  0  0  0  0  0
   35.3489   36.3974   57.8992 C   0  0  0  0  0  0  0  0  0  0  0  0
   35.5261   37.7630   57.8226 C   0  0  0  0  0  0  0  0  0  0  0  0
   36.4245   38.2332   58.7005 O   0  0  0  0  0  0  0  0  0  0  0  0
   35.4457   33.8464   58.9294 C   0  0  0  0  0  0  0  0  0  0  0  0
  1  2  1  0
  3  2  1  6
  3  4  1  0
  4  5  1  0
  3  6  1  0
  1  7  1  0
  6  8  1  0
  5  9  1  0
  8  9  1  0
  8 10  1  0
 10 11  1  0
  6 12  1  0
  7 12  1  0
 11 13  1  6
 10 14  1  0
 14 15  1  0
 13 16  1  0
 15 16  1  0
 11 17  1  0
 12 17  1  0
 16 18  1  0
  5 19  1  6
 19 20  1  0
 20 21  1  0
 21 22  1  0
 22 23  1  0
 19 24  1  0
M  END
$$$$
117
     RDKit          3D

 24 28  0  0  0  0  0  0  0  0999 V2000
   38.3536   33.1601   51.7483 C   0  0  0  0  0  0  0  0  0  0  0  0
   39.2535   34.1777   52.0521 C   0  0  1  0  0  0  0  0  0  0  0  0
   40.1160   34.7054   51.0231 N   0  0  0  0  0  0  0  0  0  0  0  0
   40.6041   35.8823   51.2420 N   0  0  0  0  0  0  0  0  0  0  0  0
   39.0685   35.2741   53.0264 C   0  0  1  0  0  0  0  0  0  0  0  0
   38.2836   35.2472   54.0764 C   0  0  2  0  0  0  0  0  0  0  0  0
   40.0126   36.2448   52.5333 C   0  0  0  0  0  0  0  0  0  0  0  0
   37.2907   32.6800   52.5876 C   0  0  0  0  0  0  0  0  0  0  0  0
   36.7305   33.5446   53.6577 C   0  0  2  0  0  0  0  0  0  0  0  0
   37.4933   34.5330   54.3869 C   0  0  2  0  0  0  0  0  0  0  0  0
   40.4270   37.5184   53.2553 C   0  0  0  0  0  0  0  0  0  0  0  0
   36.7121   34.6518   55.8514 C   0  0  2  0  0  0  0  0  0  0  0  0
   35.5311   32.8422   54.2461 O   0  0  0  0  0  0  0  0  0  0  0  0
   37.0998   35.8643   56.5528 C   0  0  1  0  0  0  0  0  0  0  0  0
   36.7110   36.0572   57.8946 C   0  0  0  0  0  0  0  0  0  0  0  0
   37.0727   37.2854   58.4945 C   0  0  0  0  0  0  0  0  0  0  0  0
   35.8816   33.7709   56.5349 C   0  0  0  0  0  0  0  0  0  0  0  0
   37.9696   38.0957   57.7409 C   0  0  0  0  0  0  0  0  0  0  0  0
   38.2894   36.4907   55.0095 C   0  0  0  0  0  0  0  0  0  0  0  0
   35.5587   32.0669   55.3246 C   0  0  0  0  0  0  0  0  0  0  0  0
   37.9013   36.7351   56.1536 C   0  0  0  0  0  0  0  0  0  0  0  0
   35.2558   30.8555   54.9974 O   0  0  0  0  0  0  0  0  0  0  0  0
   38.3779   37.8389   56.6352 N   0  0  0  0  0  0  0  0  0  0  0  0
   35.6623   32.7568   56.3844 C   0  0  0  0  0  0  0  0  0  0  0  0
  2  1  1  6
  2  3  1  0
  3  4  1  0
  2  5  1  0
  5  6  1  0
  4  7  1  0
  5  7  1  1
  1  8  1  0
  9  8  1  1
  6 10  1  0
 10  9  1  6
  7 11  1  0
 10 12  1  0
  9 13  1  0
 12 14  1  0
 14 15  1  1
 15 16  1  0
 12 17  1  1
 16 18  1  0
  6 19  1  6
 13 20  1  0
 14 21  1  0
 19 21  1  0
 20 22  2  0
 18 23  1  0
 21 23  1  0
 17 24  2  0
 20 24  1  0
M  END
$$$$
118
     RDKit          3D

 24 26  0  0  0  0  0  0  0  0999 V2000
   40.5318   36.1689   51.0562 N   0  0  0  0  0  0  0  0  0  0  0  0
   39.7629   35.1918   51.3312 C   0  0  1  0  0  0  0  0  0  0  0  0
   39.6049   34.0887   50.5696 N   0  0  0  0  0  0  0  0  0  0  0  0
   40.5543   37.2240   52.0133 C   0  0  0  0  0  0  0  0  0  0  0  0
   39.1266   34.9892   52.6395 C   0  0  2  0  0  0  0  0  0  0  0  0
   38.4023   33.8244   52.9241 C   0  0  1  0  0  0  0  0  0  0  0  0
   39.8348   37.0249   53.2147 C   0  0  2  0  0  0  0  0  0  0  0  0
   39.2317   36.0666   53.4399 N   0  0  0  0  0  0  0  0  0  0  0  0
   37.7715   33.5615   54.2045 C   0  0  0  0  0  0  0  0  0  0  0  0
   39.9688   38.3471   54.0686 C   0  0  0  0  0  0  0  0  0  0  0  0
   36.8594   32.5716   54.2576 C   0  0  1  0  0  0  0  0  0  0  0  0
   39.4324   38.2185   55.3085 N   0  0  0  0  0  0  0  0  0  0  0  0
   39.0477   37.2456   55.9904 C   0  0  0  0  0  0  0  0  0  0  0  0
   37.8074   32.9265   51.9852 C   0  0  1  0  0  0  0  0  0  0  0  0
   38.6494   33.1671   50.7313 C   0  0  0  0  0  0  0  0  0  0  0  0
   38.5105   37.5604   57.3080 C   0  0  0  0  0  0  0  0  0  0  0  0
   36.2253   32.4054   55.6336 C   0  0  0  0  0  0  0  0  0  0  0  0
   36.3102   31.9809   53.1693 C   0  0  2  0  0  0  0  0  0  0  0  0
   38.2002   38.7994   57.4741 O   0  0  0  0  0  0  0  0  0  0  0  0
   35.2014   31.1384   53.2495 O   0  0  0  0  0  0  0  0  0  0  0  0
   36.9436   32.0922   52.0166 C   0  0  0  0  0  0  0  0  0  0  0  0
   35.2719   32.2768   55.9401 O   0  0  0  0  0  0  0  0  0  0  0  0
   37.1490   32.6006   56.6866 O   0  0  0  0  0  0  0  0  0  0  0  0
   36.9880   39.1876   57.5702 C   0  0  0  0  0  0  0  0  0  0  0  0
  2  1  1  1
  2  3  1  0
  1  4  1  0
  2  5  1  0
  5  6  1  0
  4  7  1  0
  5  8  1  6
  7  8  1  0
  6  9  1  1
  7 10  1  6
  9 11  1  0
 10 12  1  0
 12 13  1  0
  6 14  1  0
  3 15  1  0
 14 15  1  1
 13 16  1  0
 11 17  1  1
 11 18  1  0
 16 19  1  0
 18 20  1  1
 14 21  1  0
 18 21  1  0
 17 22  2  0
 17 23  1  0
 19 24  1  0
M  END
$$$$
119
     RDKit          3D

 24 28  0  0  0  0  0  0  0  0999 V2000
   38.3536   33.1601   51.7483 C   0  0  0  0  0  0  0  0  0  0  0  0
   37.3366   33.2412   52.6794 C   0  0  1  0  0  0  0  0  0  0  0  0
   39.1876   34.3246   51.6562 C   0  0  0  0  0  0  0  0  0  0  0  0
   36.6039   32.0052   52.9817 N   0  0  0  0  0  0  0  0  0  0  0  0
   39.0955   35.3046   52.7404 C   0  0  2  0  0  0  0  0  0  0  0  0
   35.8557   31.8832   54.0281 C   0  0  0  0  0  0  0  0  0  0  0  0
   37.4526   34.0501   53.8669 C   0  0  2  0  0  0  0  0  0  0  0  0
   40.2091   34.6383   50.5294 O   0  0  0  0  0  0  0  0  0  0  0  0
   40.0170   36.4520   52.5667 C   0  0  0  0  0  0  0  0  0  0  0  0
   38.3700   35.1457   53.7574 C   0  0  2  0  0  0  0  0  0  0  0  0
   36.0223   32.6200   54.9318 N   0  0  0  0  0  0  0  0  0  0  0  0
   39.9601   37.4746   53.6039 C   0  0  1  0  0  0  0  0  0  0  0  0
   35.0370   30.7882   54.0543 N   0  0  0  0  0  0  0  0  0  0  0  0
   36.9087   33.7198   54.8866 C   0  0  2  0  0  0  0  0  0  0  0  0
   36.7351   34.6896   55.9792 N   0  0  0  0  0  0  0  0  0  0  0  0
   40.7690   38.6644   53.4914 C   0  0  0  0  0  0  0  0  0  0  0  0
   38.9464   37.4795   54.5621 C   0  0  0  0  0  0  0  0  0  0  0  0
   35.9432   34.5394   57.1038 C   0  0  0  0  0  0  0  0  0  0  0  0
   38.2564   36.2067   54.7277 C   0  0  1  0  0  0  0  0  0  0  0  0
   37.2980   36.0677   55.9646 C   0  0  2  0  0  0  0  0  0  0  0  0
   36.0436   35.7785   57.8783 C   0  0  0  0  0  0  0  0  0  0  0  0
   41.0704   39.2086   52.4024 N   0  0  0  0  0  0  0  0  0  0  0  0
   36.9206   36.6764   57.1432 C   0  0  0  0  0  0  0  0  0  0  0  0
   40.8594   39.4506   54.6579 N   0  0  0  0  0  0  0  0  0  0  0  0
  2  1  1  1
  1  3  1  0
  2  4  1  0
  3  5  1  0
  4  6  1  0
  7  2  1  1
  3  8  1  0
  5  9  1  1
 10  5  1  6
  7 10  1  0
  6 11  1  0
  9 12  1  0
  6 13  2  0
  7 14  1  0
 14 11  1  6
 14 15  1  0
 12 16  1  6
 12 17  1  0
 15 18  1  0
 10 19  1  0
 19 17  1  6
 15 20  1  0
 19 20  1  0
 18 21  1  0
 16 22  1  0
 20 23  1  1
 21 23  1  0
 16 24  2  0
M  END
$$$$
12
     RDKit          3D

 18 21  0  0  0  0  0  0  0  0999 V2000
   40.3575   35.6186   50.9746 N   0  0  0  0  0  0  0  0  0  0  0  0
   40.5082   36.7405   51.5988 C   0  0  0  0  0  0  0  0  0  0  0  0
   39.7962   36.8080   52.8940 C   0  0  0  0  0  0  0  0  0  0  0  0
   39.7934   37.9020   53.7595 N   0  0  0  0  0  0  0  0  0  0  0  0
   39.0580   35.7630   53.3933 C   0  0  0  0  0  0  0  0  0  0  0  0
   39.5303   34.5670   51.4013 C   0  0  0  0  0  0  0  0  0  0  0  0
   38.9733   34.5844   52.5460 C   0  0  0  0  0  0  0  0  0  0  0  0
   38.1135   33.3303   53.0962 C   0  0  0  0  0  0  0  0  0  0  0  0
   38.5322   36.1795   54.6844 N   0  0  0  0  0  0  0  0  0  0  0  0
   37.8895   32.5581   52.0783 C   0  0  2  0  0  0  0  0  0  0  0  0
   38.9836   37.4791   54.7969 C   0  0  0  0  0  0  0  0  0  0  0  0
   37.6706   33.0967   54.4065 C   0  0  0  0  0  0  0  0  0  0  0  0
   39.2419   33.3646   50.5882 N   0  0  0  0  0  0  0  0  0  0  0  0
   36.9860   31.4950   52.6101 N   0  0  0  0  0  0  0  0  0  0  0  0
   38.4537   32.4761   50.8945 C   0  0  0  0  0  0  0  0  0  0  0  0
   36.8847   31.8966   54.0099 C   0  0  2  0  0  0  0  0  0  0  0  0
   36.0286   31.2900   54.9471 C   0  0  0  0  0  0  0  0  0  0  0  0
   35.1702   32.1680   55.6902 O   0  0  0  0  0  0  0  0  0  0  0  0
  1  2  1  0
  2  3  1  0
  3  4  1  0
  3  5  1  0
  1  6  1  0
  5  7  1  0
  6  7  1  0
  7  8  1  0
  5  9  1  0
  8 10  1  0
  4 11  1  0
  9 11  1  0
  8 12  1  0
  6 13  1  0
 10 14  1  0
 10 15  1  1
 13 15  1  0
 12 16  1  0
 14 16  1  0
 16 17  1  6
 17 18  1  0
M  END
$$$$
13
     RDKit          3D

 18 20  0  0  0  0  0  0  0  0999 V2000
   39.5048   35.0938   50.8770 C   0  0  0  0  0  0  0  0  0  0  0  0
   39.8244   36.1500   51.7166 C   0  0  1  0  0  0  0  0  0  0  0  0
   40.4425   37.3096   51.3666 N   0  0  0  0  0  0  0  0  0  0  0  0
   39.2062   35.7816   53.0471 C   0  0  0  0  0  0  0  0  0  0  0  0
   38.9236   33.9348   51.2897 N   0  0  0  0  0  0  0  0  0  0  0  0
   40.5756   38.2782   52.4139 C   0  0  0  0  0  0  0  0  0  0  0  0
   41.1824   39.3704   52.1492 N   0  0  0  0  0  0  0  0  0  0  0  0
   40.0364   37.9949   53.7332 C   0  0  0  0  0  0  0  0  0  0  0  0
   38.5892   34.1212   52.6227 C   0  0  0  0  0  0  0  0  0  0  0  0
   37.9448   33.4156   53.5300 C   0  0  0  0  0  0  0  0  0  0  0  0
   39.4008   36.9067   53.9335 C   0  0  0  0  0  0  0  0  0  0  0  0
   36.8794   32.6374   53.0980 C   0  0  0  0  0  0  0  0  0  0  0  0
   38.2662   33.4673   54.9343 C   0  0  0  0  0  0  0  0  0  0  0  0
   36.0619   31.9108   54.2014 C   0  0  1  0  0  0  0  0  0  0  0  0
   37.4664   32.8025   55.8700 C   0  0  1  0  0  0  0  0  0  0  0  0
   37.6720   33.0402   57.2233 O   0  0  0  0  0  0  0  0  0  0  0  0
   36.2155   32.2434   55.5170 C   0  0  0  0  0  0  0  0  0  0  0  0
   34.9408   31.1363   53.6649 O   0  0  0  0  0  0  0  0  0  0  0  0
  2  1  1  6
  2  3  1  0
  2  4  1  0
  1  5  1  0
  3  6  1  0
  6  7  1  0
  6  8  1  0
  4  9  1  0
  5  9  1  0
  9 10  1  0
  4 11  1  0
  8 11  1  0
 10 12  1  0
 10 13  1  0
 12 14  1  0
 13 15  1  0
 15 16  1  1
 14 17  1  0
 15 17  1  0
 14 18  1  6
M  END
$$$$
14
     RDKit          3D

 18 20  0  0  0  0  0  0  0  0999 V2000
   38.3536   33.1601   51.7483 C   0  0  0  0  0  0  0  0  0  0  0  0
   37.3366   33.2412   52.6794 C   0  0  1  0  0  0  0  0  0  0  0  0
   39.1876   34.3246   51.6562 C   0  0  0  0  0  0  0  0  0  0  0  0
   36.6039   32.0052   52.9817 N   0  0  0  0  0  0  0  0  0  0  0  0
   39.0955   35.3046   52.7404 C   0  0  0  0  0  0  0  0  0  0  0  0
   35.8557   31.8832   54.0281 C   0  0  0  0  0  0  0  0  0  0  0  0
   37.4526   34.0501   53.8669 C   0  0  1  0  0  0  0  0  0  0  0  0
   38.2654   35.1533   53.8390 C   0  0  0  0  0  0  0  0  0  0  0  0
   38.3363   36.1513   54.8779 C   0  0  0  0  0  0  0  0  0  0  0  0
   36.6858   33.7844   55.1211 C   0  0  0  0  0  0  0  0  0  0  0  0
   35.8956   32.6044   55.0115 C   0  0  0  0  0  0  0  0  0  0  0  0
   34.9993   30.7462   53.9787 O   0  0  0  0  0  0  0  0  0  0  0  0
   39.1550   37.2741   54.7914 C   0  0  0  0  0  0  0  0  0  0  0  0
   35.1685   32.3655   56.2450 O   0  0  0  0  0  0  0  0  0  0  0  0
   35.6840   33.0246   57.3127 C   0  0  0  0  0  0  0  0  0  0  0  0
   40.0109   34.5090   50.5831 O   0  0  0  0  0  0  0  0  0  0  0  0
   40.0293   36.5101   52.4477 C   0  0  0  0  0  0  0  0  0  0  0  0
   39.9219   37.4094   53.6514 C   0  0  0  0  0  0  0  0  0  0  0  0
  2  1  1  1
  1  3  1  0
  2  4  1  0
  3  5  1  0
  4  6  1  0
  2  7  1  0
  5  8  1  0
  7  8  1  0
  8  9  1  0
  7 10  1  6
  6 11  1  0
 10 11  1  0
  6 12  2  0
  9 13  1  0
 11 14  1  0
 14 15  1  0
  3 16  1  0
  5 17  1  0
 13 18  1  0
 17 18  1  0
M  END
$$$$
15
     RDKit          3D

 18 21  0  0  0  0  0  0  0  0999 V2000
   39.5048   35.0938   50.8770 C   0  0  0  0  0  0  0  0  0  0  0  0
   38.8782   34.1132   51.4924 C   0  0  0  0  0  0  0  0  0  0  0  0
   38.4612   34.3153   52.8278 C   0  0  0  0  0  0  0  0  0  0  0  0
   39.9522   36.2363   51.5889 C   0  0  0  0  0  0  0  0  0  0  0  0
   38.7256   35.3500   53.3942 C   0  0  0  0  0  0  0  0  0  0  0  0
   37.6601   33.1720   53.4088 C   0  0  0  0  0  0  0  0  0  0  0  0
   38.2806   35.5704   54.7787 C   0  0  2  0  0  0  0  0  0  0  0  0
   39.5300   36.4533   52.8254 C   0  0  0  0  0  0  0  0  0  0  0  0
   37.5425   34.5606   55.4074 C   0  0  2  0  0  0  0  0  0  0  0  0
   38.3878   36.9123   55.4154 C   0  0  0  0  0  0  0  0  0  0  0  0
   37.1258   34.8506   56.8146 C   0  0  0  0  0  0  0  0  0  0  0  0
   37.3124   33.3517   54.8312 C   0  0  0  0  0  0  0  0  0  0  0  0
   36.4665   33.8758   57.6586 C   0  0  0  0  0  0  0  0  0  0  0  0
   37.9648   37.0601   56.7573 C   0  0  0  0  0  0  0  0  0  0  0  0
   37.3838   36.1469   57.3441 C   0  0  0  0  0  0  0  0  0  0  0  0
   36.9160   36.3830   58.7716 C   0  0  0  0  0  0  0  0  0  0  0  0
   35.9754   34.0703   58.8587 C   0  0  0  0  0  0  0  0  0  0  0  0
   36.1990   35.3069   59.4357 C   0  0  0  0  0  0  0  0  0  0  0  0
  1  2  1  0
  2  3  1  0
  1  4  1  0
  3  5  1  0
  3  6  1  0
  5  7  1  0
  4  8  1  0
  5  8  1  0
  7  9  1  0
  7 10  1  6
  9 11  1  0
  6 12  1  0
  9 12  1  1
 11 13  1  0
 10 14  1  0
 11 15  1  0
 14 15  1  0
 15 16  1  0
 13 17  1  0
 16 18  1  0
 17 18  1  0
M  END
$$$$
16
     RDKit          3D

 18 21  0  0  0  0  0  0  0  0999 V2000
   40.5234   35.9614   51.1397 N   0  0  0  0  0  0  0  0  0  0  0  0
   40.5658   36.9274   52.0201 C   0  0  0  0  0  0  0  0  0  0  0  0
   39.6936   34.9150   51.4035 C   0  0  0  0  0  0  0  0  0  0  0  0
   39.6109   36.7071   53.1794 C   0  0  0  0  0  0  0  0  0  0  0  0
   38.8764   35.6389   53.3646 C   0  0  0  0  0  0  0  0  0  0  0  0
   38.9275   34.6685   52.3822 C   0  0  0  0  0  0  0  0  0  0  0  0
   38.0072   35.4119   54.4743 N   0  0  0  0  0  0  0  0  0  0  0  0
   38.1111   33.4827   52.6002 C   0  0  0  0  0  0  0  0  0  0  0  0
   37.3923   33.2980   53.4605 C   0  0  2  0  0  0  0  0  0  0  0  0
   37.3276   34.2632   54.5694 C   0  0  2  0  0  0  0  0  0  0  0  0
   36.4670   33.9813   55.6754 C   0  0  0  0  0  0  0  0  0  0  0  0
   36.4943   32.2108   53.8003 C   0  0  1  0  0  0  0  0  0  0  0  0
   35.7753   32.0459   54.8467 N   0  0  0  0  0  0  0  0  0  0  0  0
   34.9163   30.8431   54.8360 N   0  0  0  0  0  0  0  0  0  0  0  0
   34.8909   30.4264   53.5605 C   0  0  0  0  0  0  0  0  0  0  0  0
   35.7422   31.4786   52.8271 N   0  0  0  0  0  0  0  0  0  0  0  0
   35.8256   32.8811   55.9127 C   0  0  0  0  0  0  0  0  0  0  0  0
   35.1970   32.6567   57.0418 O   0  0  0  0  0  0  0  0  0  0  0  0
  1  2  1  0
  1  3  1  0
  2  4  1  0
  4  5  1  0
  3  6  1  0
  5  6  1  0
  5  7  1  0
  6  8  1  0
  9  8  1  1
  7 10  1  0
  9 10  1  0
 10 11  1  6
  9 12  1  0
 12 13  1  0
 13 14  1  0
 14 15  1  0
 12 16  1  6
 15 16  1  0
 11 17  1  0
 13 17  1  0
 17 18  2  0
M  END
$$$$
17
     RDKit          3D

 19 22  0  0  0  0  0  0  0  0999 V2000
   38.3536   33.1601   51.7483 C   0  0  0  0  0  0  0  0  0  0  0  0
   37.3366   33.2412   52.6794 C   0  0  1  0  0  0  0  0  0  0  0  0
   39.1876   34.3246   51.6562 C   0  0  0  0  0  0  0  0  0  0  0  0
   36.6039   32.0052   52.9817 N   0  0  0  0  0  0  0  0  0  0  0  0
   39.0955   35.3046   52.7404 C   0  0  1  0  0  0  0  0  0  0  0  0
   35.8557   31.8832   54.0281 C   0  0  0  0  0  0  0  0  0  0  0  0
   37.4526   34.0501   53.8669 C   0  0  1  0  0  0  0  0  0  0  0  0
   38.2654   35.1533   53.8390 C   0  0  0  0  0  0  0  0  0  0  0  0
   38.3363   36.1513   54.8779 C   0  0  0  0  0  0  0  0  0  0  0  0
   36.6858   33.7844   55.1211 C   0  0  2  0  0  0  0  0  0  0  0  0
   35.8956   32.6044   55.0115 C   0  0  0  0  0  0  0  0  0  0  0  0
   34.9993   30.7462   53.9787 O   0  0  0  0  0  0  0  0  0  0  0  0
   40.2067   34.5651   50.3896 O   0  0  0  0  0  0  0  0  0  0  0  0
   40.1366   36.4492   52.4939 C   0  0  0  0  0  0  0  0  0  0  0  0
   35.2226   32.4126   56.3077 O   0  0  0  0  0  0  0  0  0  0  0  0
   37.6102   36.0141   56.0675 C   0  0  0  0  0  0  0  0  0  0  0  0
   39.2199   37.2077   54.5993 C   0  0  0  0  0  0  0  0  0  0  0  0
   40.0856   37.3576   53.5580 C   0  0  0  0  0  0  0  0  0  0  0  0
   36.7086   34.7189   56.1800 C   0  0  0  0  0  0  0  0  0  0  0  0
  2  1  1  1
  1  3  1  0
  2  4  1  0
  3  5  1  0
  4  6  1  0
  2  7  1  0
  5  8  1  0
  7  8  1  6
  8  9  1  0
  7 10  1  0
  6 11  1  0
 10 11  1  0
  6 12  2  0
  3 13  1  0
  5 14  1  1
 11 15  1  0
  9 16  1  0
  9 17  1  0
 14 18  1  0
 17 18  1  0
 10 19  1  6
 16 19  1  0
M  END
$$$$
18
     RDKit          3D

 19 22  0  0  0  0  0  0  0  0999 V2000
   34.8956   30.9053   52.9411 O   0  0  0  0  0  0  0  0  0  0  0  0
   35.4615   31.5137   53.8836 C   0  0  0  0  0  0  0  0  0  0  0  0
   36.5628   32.2798   53.7347 C   0  0  2  0  0  0  0  0  0  0  0  0
   37.0217   33.1338   54.7817 C   0  0  2  0  0  0  0  0  0  0  0  0
   35.0575   31.6032   55.2619 N   0  0  0  0  0  0  0  0  0  0  0  0
   37.2100   32.4194   52.4255 C   0  0  0  0  0  0  0  0  0  0  0  0
   36.3808   33.0401   55.9737 N   0  0  0  0  0  0  0  0  0  0  0  0
   38.1964   33.3803   52.2319 C   0  0  0  0  0  0  0  0  0  0  0  0
   35.4751   32.2766   56.2338 C   0  0  0  0  0  0  0  0  0  0  0  0
   38.5677   34.2506   53.2703 C   0  0  0  0  0  0  0  0  0  0  0  0
   37.9530   34.1487   54.5273 C   0  0  0  0  0  0  0  0  0  0  0  0
   39.7018   35.3045   53.0562 C   0  0  1  0  0  0  0  0  0  0  0  0
   40.1928   35.3013   51.7195 C   0  0  2  0  0  0  0  0  0  0  0  0
   40.9418   36.4056   51.4373 N   0  0  0  0  0  0  0  0  0  0  0  0
   40.0011   36.2236   53.9324 C   0  0  0  0  0  0  0  0  0  0  0  0
   39.7695   34.3926   50.7618 N   0  0  0  0  0  0  0  0  0  0  0  0
   38.8687   33.4529   50.9619 C   0  0  0  0  0  0  0  0  0  0  0  0
   40.7308   37.3428   53.5733 C   0  0  0  0  0  0  0  0  0  0  0  0
   41.1008   37.4459   52.3328 C   0  0  0  0  0  0  0  0  0  0  0  0
  1  2  2  0
  2  3  1  0
  3  4  1  0
  2  5  1  0
  3  6  1  6
  4  7  1  0
  6  8  1  0
  5  9  1  0
  7  9  1  0
  8 10  1  0
  4 11  1  6
 10 11  1  0
 10 12  1  0
 12 13  1  0
 13 14  1  6
 12 15  1  6
 13 16  1  0
  8 17  1  0
 16 17  1  0
 15 18  1  0
 14 19  1  0
 18 19  1  0
M  END
$$$$
19
     RDKit          3D

 19 20  0  0  0  0  0  0  0  0999 V2000
   34.8956   30.9053   52.9411 O   0  0  0  0  0  0  0  0  0  0  0  0
   35.8073   31.6009   53.4192 C   0  0  0  0  0  0  0  0  0  0  0  0
   35.8469   32.1203   54.7079 C   0  0  0  0  0  0  0  0  0  0  0  0
   36.7553   32.2043   52.4871 C   0  0  0  0  0  0  0  0  0  0  0  0
   36.7394   33.0259   55.2345 C   0  0  2  0  0  0  0  0  0  0  0  0
   37.6182   33.2006   52.9533 C   0  0  1  0  0  0  0  0  0  0  0  0
   36.6349   33.4771   56.5445 N   0  0  0  0  0  0  0  0  0  0  0  0
   37.5654   33.6322   54.3193 N   0  0  0  0  0  0  0  0  0  0  0  0
   38.6879   33.8251   52.1175 C   0  0  1  0  0  0  0  0  0  0  0  0
   38.9118   33.5214   50.9021 N   0  0  0  0  0  0  0  0  0  0  0  0
   39.4153   35.0054   52.6222 C   0  0  2  0  0  0  0  0  0  0  0  0
   35.8697   32.8517   57.3809 N   0  0  0  0  0  0  0  0  0  0  0  0
   39.3916   35.7649   53.7795 C   0  0  0  0  0  0  0  0  0  0  0  0
   35.8722   33.3345   58.7765 C   0  0  0  0  0  0  0  0  0  0  0  0
   40.1234   35.4689   51.4468 C   0  0  0  0  0  0  0  0  0  0  0  0
   39.7866   34.3995   50.2649 N   0  0  0  0  0  0  0  0  0  0  0  0
   40.9510   36.5951   51.1627 N   0  0  0  0  0  0  0  0  0  0  0  0
   35.4300   34.5066   59.1388 C   0  0  0  0  0  0  0  0  0  0  0  0
   36.5184   32.4761   59.6402 O   0  0  0  0  0  0  0  0  0  0  0  0
  1  2  2  0
  2  3  1  0
  2  4  1  0
  3  5  1  0
  6  4  1  1
  5  7  1  6
  5  8  1  0
  6  8  1  0
  6  9  1  0
  9 10  1  6
  9 11  1  0
  7 12  1  0
 11 13  1  6
 12 14  1  0
 11 15  1  0
 10 16  1  0
 15 16  1  0
 15 17  1  0
 14 18  1  0
 14 19  2  0
M  END
$$$$
2
     RDKit          3D

 15 17  0  0  0  0  0  0  0  0999 V2000
   40.5234   35.9614   51.1397 N   0  0  0  0  0  0  0  0  0  0  0  0
   40.5658   36.9274   52.0201 C   0  0  0  0  0  0  0  0  0  0  0  0
   39.6936   34.9150   51.4035 C   0  0  0  0  0  0  0  0  0  0  0  0
   39.6109   36.7071   53.1794 C   0  0  0  0  0  0  0  0  0  0  0  0
   38.8764   35.6389   53.3646 C   0  0  0  0  0  0  0  0  0  0  0  0
   38.9275   34.6685   52.3822 C   0  0  0  0  0  0  0  0  0  0  0  0
   38.0072   35.4119   54.4743 N   0  0  0  0  0  0  0  0  0  0  0  0
   38.1111   33.4827   52.6002 C   0  0  0  0  0  0  0  0  0  0  0  0
   37.3923   33.2980   53.4605 N   0  0  0  0  0  0  0  0  0  0  0  0
   38.2181   32.3349   51.5710 O   0  0  0  0  0  0  0  0  0  0  0  0
   36.5832   32.1101   53.7443 C   0  0  0  0  0  0  0  0  0  0  0  0
   36.1240   31.4232   52.8914 O   0  0  0  0  0  0  0  0  0  0  0  0
   36.1882   31.9039   55.1386 C   0  0  0  0  0  0  0  0  0  0  0  0
   37.2997   34.1745   54.7069 C   0  0  2  0  0  0  0  0  0  0  0  0
   36.4921   33.6647   55.7529 S   0  0  0  0  0  0  0  0  0  0  0  0
  1  2  1  0
  1  3  1  0
  2  4  1  0
  4  5  1  0
  3  6  1  0
  5  6  1  0
  5  7  1  0
  6  8  1  0
  8  9  1  0
  8 10  2  0
  9 11  1  0
 11 12  2  0
 11 13  1  0
 14  7  1  6
  9 14  1  0
 13 15  1  0
 14 15  1  0
M  END
$$$$
20
     RDKit          3D

 19 22  0  0  0  0  0  0  0  0999 V2000
   40.5234   35.9614   51.1397 N   0  0  0  0  0  0  0  0  0  0  0  0
   39.6713   35.0294   51.4226 C   0  0  2  0  0  0  0  0  0  0  0  0
   39.1255   34.8170   52.3649 N   0  0  0  0  0  0  0  0  0  0  0  0
   39.7477   33.9833   50.3577 N   0  0  0  0  0  0  0  0  0  0  0  0
   39.1439   35.7832   53.4371 C   0  0  2  0  0  0  0  0  0  0  0  0
   40.4793   37.0412   52.1101 C   0  0  0  0  0  0  0  0  0  0  0  0
   38.3969   35.6115   54.6611 N   0  0  0  0  0  0  0  0  0  0  0  0
   39.7282   36.9710   53.4130 C   0  0  2  0  0  0  0  0  0  0  0  0
   38.6098   36.7898   55.4215 C   0  0  0  0  0  0  0  0  0  0  0  0
   37.4563   34.7191   54.9670 C   0  0  1  0  0  0  0  0  0  0  0  0
   39.4806   37.5880   54.6000 N   0  0  0  0  0  0  0  0  0  0  0  0
   37.5620   33.3908   55.0996 C   0  0  0  0  0  0  0  0  0  0  0  0
   36.2062   35.1087   55.6289 O   0  0  0  0  0  0  0  0  0  0  0  0
   36.4184   32.6167   55.0220 C   0  0  1  0  0  0  0  0  0  0  0  0
   35.2562   33.2277   55.3715 C   0  0  1  0  0  0  0  0  0  0  0  0
   34.1632   32.2632   55.4687 O   0  0  0  0  0  0  0  0  0  0  0  0
   34.6141   30.9715   55.0312 C   0  0  0  0  0  0  0  0  0  0  0  0
   35.9610   31.3146   54.3984 C   0  0  0  0  0  0  0  0  0  0  0  0
   35.3178   34.5274   55.7660 C   0  0  0  0  0  0  0  0  0  0  0  0
  1  2  1  0
  2  3  1  0
  2  4  1  1
  5  3  1  6
  1  6  1  0
  5  7  1  0
  5  8  1  0
  8  6  1  1
  7  9  1  0
 10  7  1  1
  8 11  1  0
  9 11  1  0
 10 12  1  0
 10 13  1  0
 14 12  1  6
 14 15  1  0
 15 16  1  0
 16 17  1  0
 14 18  1  0
 17 18  1  0
 13 19  1  0
 15 19  1  1
M  END
$$$$
21
     RDKit          3D

 19 22  0  0  0  0  0  0  0  0999 V2000
   39.5048   35.0938   50.8770 C   0  0  0  0  0  0  0  0  0  0  0  0
   38.8782   34.1132   51.4924 C   0  0  0  0  0  0  0  0  0  0  0  0
   38.4612   34.3153   52.8278 C   0  0  0  0  0  0  0  0  0  0  0  0
   39.9522   36.2363   51.5889 C   0  0  0  0  0  0  0  0  0  0  0  0
   38.7256   35.3500   53.3942 C   0  0  0  0  0  0  0  0  0  0  0  0
   37.6601   33.1720   53.4088 C   0  0  0  0  0  0  0  0  0  0  0  0
   38.2806   35.5704   54.7787 C   0  0  2  0  0  0  0  0  0  0  0  0
   39.5300   36.4533   52.8254 C   0  0  0  0  0  0  0  0  0  0  0  0
   37.5425   34.5606   55.4074 C   0  0  2  0  0  0  0  0  0  0  0  0
   38.3878   36.9123   55.4154 C   0  0  0  0  0  0  0  0  0  0  0  0
   37.1258   34.8506   56.8146 C   0  0  0  0  0  0  0  0  0  0  0  0
   37.3124   33.3517   54.8312 C   0  0  0  0  0  0  0  0  0  0  0  0
   36.4665   33.8758   57.6586 C   0  0  0  0  0  0  0  0  0  0  0  0
   37.9648   37.0601   56.7573 C   0  0  0  0  0  0  0  0  0  0  0  0
   37.3838   36.1469   57.3441 C   0  0  0  0  0  0  0  0  0  0  0  0
   36.9160   36.3830   58.7716 C   0  0  1  0  0  0  0  0  0  0  0  0
   36.9730   37.6178   59.3701 C   0  0  0  0  0  0  0  0  0  0  0  0
   35.9883   34.0832   58.8929 C   0  0  0  0  0  0  0  0  0  0  0  0
   35.9693   35.3611   59.3382 C   0  0  0  0  0  0  0  0  0  0  0  0
  1  2  1  0
  2  3  1  0
  1  4  1  0
  3  5  1  0
  3  6  1  0
  5  7  1  0
  4  8  1  0
  5  8  1  0
  7  9  1  0
  7 10  1  6
  9 11  1  0
  6 12  1  0
  9 12  1  1
 11 13  1  0
 10 14  1  0
 11 15  1  0
 14 15  1  0
 15 16  1  0
 16 17  1  6
 13 18  1  0
 16 19  1  0
 18 19  1  0
M  END
$$$$
22
     RDKit          3D

 19 22  0  0  0  0  0  0  0  0999 V2000
   35.6310   31.7763   54.9744 C   0  0  0  0  0  0  0  0  0  0  0  0
   36.2654   32.7755   55.3225 C   0  0  0  0  0  0  0  0  0  0  0  0
   35.5410   31.3666   53.6325 C   0  0  1  0  0  0  0  0  0  0  0  0
   36.3462   31.9929   52.7154 C   0  0  0  0  0  0  0  0  0  0  0  0
   34.6733   30.1126   53.1437 C   0  0  0  0  0  0  0  0  0  0  0  0
   37.2139   33.0537   53.1453 C   0  0  0  0  0  0  0  0  0  0  0  0
   37.1349   33.4703   54.4482 C   0  0  1  0  0  0  0  0  0  0  0  0
   38.2135   33.7757   52.1743 C   0  0  0  0  0  0  0  0  0  0  0  0
   37.9335   34.6378   54.6638 C   0  0  1  0  0  0  0  0  0  0  0  0
   36.1312   33.2464   56.7201 C   0  0  0  0  0  0  0  0  0  0  0  0
   38.3718   33.2868   50.8437 N   0  0  0  0  0  0  0  0  0  0  0  0
   37.9478   35.2476   56.0252 C   0  0  0  0  0  0  0  0  0  0  0  0
   38.9019   34.8230   52.6114 C   0  0  1  0  0  0  0  0  0  0  0  0
   39.3381   33.8771   50.2955 C   0  0  0  0  0  0  0  0  0  0  0  0
   38.7923   35.2352   53.7855 C   0  0  0  0  0  0  0  0  0  0  0  0
   35.4539   32.8448   57.7094 O   0  0  0  0  0  0  0  0  0  0  0  0
   36.9675   34.4277   57.2570 C   0  0  0  0  0  0  0  0  0  0  0  0
   39.7027   35.0694   51.3828 N   0  0  0  0  0  0  0  0  0  0  0  0
   40.6046   36.0781   51.2210 C   0  0  0  0  0  0  0  0  0  0  0  0
  1  2  1  0
  1  3  1  0
  3  4  1  0
  3  5  1  1
  4  6  1  0
  7  2  1  6
  6  7  1  0
  6  8  1  0
  7  9  1  0
  2 10  1  0
  8 11  1  0
  9 12  1  1
  8 13  1  0
 11 14  1  0
  9 15  1  0
 13 15  1  1
 10 16  2  0
 10 17  1  0
 12 17  1  0
 13 18  1  0
 14 18  1  0
 18 19  1  0
M  END
$$$$
23
     RDKit          3D

 19 21  0  0  0  0  0  0  0  0999 V2000
   35.2602   31.4301   52.9393 O   0  0  0  0  0  0  0  0  0  0  0  0
   36.2738   31.9774   53.3380 C   0  0  0  0  0  0  0  0  0  0  0  0
   37.3703   32.4360   52.5493 N   0  0  0  0  0  0  0  0  0  0  0  0
   38.2210   33.3688   52.9450 C   0  0  2  0  0  0  0  0  0  0  0  0
   38.0935   33.9659   54.1791 N   0  0  0  0  0  0  0  0  0  0  0  0
   38.9933   34.1733   52.0202 C   0  0  0  0  0  0  0  0  0  0  0  0
   39.6456   35.3462   52.5310 C   0  0  1  0  0  0  0  0  0  0  0  0
   39.5722   35.6983   53.8252 C   0  0  0  0  0  0  0  0  0  0  0  0
   38.7786   34.9724   54.6523 C   0  0  0  0  0  0  0  0  0  0  0  0
   36.4068   32.4860   54.7687 C   0  0  2  0  0  0  0  0  0  0  0  0
   35.3517   32.0418   55.6813 N   0  0  0  0  0  0  0  0  0  0  0  0
   37.3064   33.3527   55.2766 C   0  0  2  0  0  0  0  0  0  0  0  0
   37.0207   33.7332   56.4338 N   0  0  0  0  0  0  0  0  0  0  0  0
   35.9000   32.8679   56.7827 C   0  0  1  0  0  0  0  0  0  0  0  0
   35.2851   32.9239   58.0997 N   0  0  0  0  0  0  0  0  0  0  0  0
   35.3478   33.9685   58.9593 C   0  0  0  0  0  0  0  0  0  0  0  0
   34.8252   33.8983   60.1549 C   0  0  0  0  0  0  0  0  0  0  0  0
   35.8741   34.9283   58.8174 O   0  0  0  0  0  0  0  0  0  0  0  0
   40.6270   36.1741   51.4328 Cl  0  0  0  0  0  0  0  0  0  0  0  0
  1  2  2  0
  2  3  1  0
  3  4  1  0
  4  5  1  0
  4  6  1  6
  6  7  1  0
  7  8  1  0
  5  9  1  0
  8  9  1  0
  2 10  1  0
 10 11  1  6
  5 12  1  0
 10 12  1  0
 12 13  1  6
 11 14  1  0
 13 14  1  0
 14 15  1  6
 15 16  1  0
 16 17  1  0
 16 18  2  0
  7 19  1  1
M  END
$$$$
24
     RDKit          3D

 19 22  0  0  0  0  0  0  0  0999 V2000
   39.5048   35.0938   50.8770 C   0  0  0  0  0  0  0  0  0  0  0  0
   38.8782   34.1132   51.4924 C   0  0  0  0  0  0  0  0  0  0  0  0
   38.4612   34.3153   52.8278 C   0  0  0  0  0  0  0  0  0  0  0  0
   39.9522   36.2363   51.5889 C   0  0  0  0  0  0  0  0  0  0  0  0
   38.7256   35.3500   53.3942 C   0  0  0  0  0  0  0  0  0  0  0  0
   37.6601   33.1720   53.4088 C   0  0  0  0  0  0  0  0  0  0  0  0
   38.2806   35.5704   54.7787 C   0  0  2  0  0  0  0  0  0  0  0  0
   39.5300   36.4533   52.8254 C   0  0  0  0  0  0  0  0  0  0  0  0
   37.5425   34.5606   55.4074 C   0  0  2  0  0  0  0  0  0  0  0  0
   38.3878   36.9123   55.4154 C   0  0  0  0  0  0  0  0  0  0  0  0
   37.1258   34.8506   56.8146 C   0  0  0  0  0  0  0  0  0  0  0  0
   37.3124   33.3517   54.8312 C   0  0  0  0  0  0  0  0  0  0  0  0
   36.4665   33.8758   57.6586 C   0  0  0  0  0  0  0  0  0  0  0  0
   37.9648   37.0601   56.7573 C   0  0  0  0  0  0  0  0  0  0  0  0
   37.3838   36.1469   57.3441 C   0  0  0  0  0  0  0  0  0  0  0  0
   36.9160   36.3830   58.7716 C   0  0  0  0  0  0  0  0  0  0  0  0
   35.9754   34.0703   58.8587 C   0  0  1  0  0  0  0  0  0  0  0  0
   35.3841   32.9369   59.5980 C   0  0  0  0  0  0  0  0  0  0  0  0
   36.3469   35.2507   59.5250 C   0  0  0  0  0  0  0  0  0  0  0  0
  1  2  1  0
  2  3  1  0
  1  4  1  0
  3  5  1  0
  3  6  1  0
  5  7  1  0
  4  8  1  0
  5  8  1  0
  7  9  1  0
  7 10  1  6
  9 11  1  0
  6 12  1  0
  9 12  1  1
 11 13  1  0
 10 14  1  0
 11 15  1  0
 14 15  1  0
 15 16  1  0
 13 17  1  0
 17 18  1  1
 16 19  1  0
 17 19  1  0
M  END
$$$$
25
     RDKit          3D

 19 21  0  0  0  0  0  0  0  0999 V2000
   35.6310   31.7763   54.9744 C   0  0  0  0  0  0  0  0  0  0  0  0
   36.2654   32.7755   55.3225 C   0  0  2  0  0  0  0  0  0  0  0  0
   35.5410   31.3666   53.6325 C   0  0  0  0  0  0  0  0  0  0  0  0
   36.3462   31.9929   52.7154 C   0  0  0  0  0  0  0  0  0  0  0  0
   37.0447   33.3618   54.4565 C   0  0  0  0  0  0  0  0  0  0  0  0
   37.1943   33.0509   53.2990 C   0  0  2  0  0  0  0  0  0  0  0  0
   38.1246   33.7628   52.3270 C   0  0  2  0  0  0  0  0  0  0  0  0
   38.5930   33.1888   51.1417 N   0  0  0  0  0  0  0  0  0  0  0  0
   38.7380   35.0411   52.6537 C   0  0  2  0  0  0  0  0  0  0  0  0
   39.5318   34.0338   50.5520 N   0  0  0  0  0  0  0  0  0  0  0  0
   39.6928   35.1722   51.4447 C   0  0  1  0  0  0  0  0  0  0  0  0
   38.7691   35.9845   53.6280 C   0  0  0  0  0  0  0  0  0  0  0  0
   36.2481   33.1755   56.7510 C   0  0  0  0  0  0  0  0  0  0  0  0
   39.5804   37.1373   53.4551 C   0  0  0  0  0  0  0  0  0  0  0  0
   40.4432   36.3292   51.3006 N   0  0  0  0  0  0  0  0  0  0  0  0
   40.3209   37.2357   52.3719 C   0  0  0  0  0  0  0  0  0  0  0  0
   34.6913   30.3360   53.1625 C   0  0  0  0  0  0  0  0  0  0  0  0
   35.5945   32.5133   57.6597 O   0  0  0  0  0  0  0  0  0  0  0  0
   36.7111   34.3697   57.1481 O   0  0  0  0  0  0  0  0  0  0  0  0
  1  2  1  0
  1  3  1  0
  3  4  1  0
  2  5  1  0
  6  4  1  6
  5  6  1  0
  6  7  1  0
  7  8  1  1
  7  9  1  0
  8 10  1  0
  9 11  1  0
 11 10  1  6
  9 12  1  1
  2 13  1  1
 12 14  1  0
 11 15  1  0
 14 16  1  0
 15 16  1  0
  3 17  1  0
 13 18  2  0
 13 19  1  0
M  END
$$$$
26
     RDKit          3D

 19 21  0  0  0  0  0  0  0  0999 V2000
   40.5234   35.9614   51.1397 N   0  0  0  0  0  0  0  0  0  0  0  0
   39.6713   35.0294   51.4226 C   0  0  2  0  0  0  0  0  0  0  0  0
   39.1255   34.8170   52.3649 N   0  0  0  0  0  0  0  0  0  0  0  0
   39.7477   33.9833   50.3577 N   0  0  0  0  0  0  0  0  0  0  0  0
   39.1439   35.7832   53.4371 C   0  0  2  0  0  0  0  0  0  0  0  0
   40.4793   37.0412   52.1101 C   0  0  0  0  0  0  0  0  0  0  0  0
   38.3969   35.6115   54.6611 N   0  0  0  0  0  0  0  0  0  0  0  0
   39.7282   36.9710   53.4130 C   0  0  2  0  0  0  0  0  0  0  0  0
   38.6098   36.7898   55.4215 C   0  0  0  0  0  0  0  0  0  0  0  0
   37.4563   34.7191   54.9670 C   0  0  1  0  0  0  0  0  0  0  0  0
   39.4806   37.5880   54.6000 N   0  0  0  0  0  0  0  0  0  0  0  0
   37.5620   33.3908   55.0996 C   0  0  1  0  0  0  0  0  0  0  0  0
   36.2062   35.1087   55.6289 O   0  0  0  0  0  0  0  0  0  0  0  0
   36.3705   32.7137   55.5389 C   0  0  2  0  0  0  0  0  0  0  0  0
   35.9897   31.4640   55.3423 O   0  0  0  0  0  0  0  0  0  0  0  0
   38.2058   32.3136   54.4177 O   0  0  0  0  0  0  0  0  0  0  0  0
   35.4187   33.7943   55.8096 C   0  0  1  0  0  0  0  0  0  0  0  0
   34.9746   33.8853   57.1424 C   0  0  0  0  0  0  0  0  0  0  0  0
   35.8832   34.5250   58.0606 O   0  0  0  0  0  0  0  0  0  0  0  0
  1  2  1  0
  2  3  1  0
  2  4  1  1
  5  3  1  6
  1  6  1  0
  5  7  1  0
  5  8  1  0
  8  6  1  1
  7  9  1  0
 10  7  1  1
  8 11  1  0
  9 11  1  0
 10 12  1  0
 10 13  1  0
 12 14  1  0
 14 15  1  6
 12 16  1  6
 13 17  1  0
 14 17  1  0
 17 18  1  1
 18 19  1  0
M  END
$$$$
27
     RDKit          3D

 20 23  0  0  0  0  0  0  0  0999 V2000
   35.8381   32.9146   56.5310 C   0  0  2  0  0  0  0  0  0  0  0  0
   36.2181   34.1434   56.5542 N   0  0  0  0  0  0  0  0  0  0  0  0
   37.0413   34.7394   55.6207 C   0  0  1  0  0  0  0  0  0  0  0  0
   35.9778   32.2279   55.3358 C   0  0  0  0  0  0  0  0  0  0  0  0
   36.5247   32.7554   54.3322 C   0  0  0  0  0  0  0  0  0  0  0  0
   37.1205   34.0414   54.4018 C   0  0  2  0  0  0  0  0  0  0  0  0
   37.7581   35.9638   55.6079 N   0  0  0  0  0  0  0  0  0  0  0  0
   36.5312   31.9365   52.9124 C   0  0  0  0  0  0  0  0  0  0  0  0
   37.9795   34.6345   53.2983 C   0  0  0  0  0  0  0  0  0  0  0  0
   35.0515   32.4663   57.5592 O   0  0  0  0  0  0  0  0  0  0  0  0
   36.0855   34.8668   57.9459 C   0  0  0  0  0  0  0  0  0  0  0  0
   35.2179   31.7377   52.5248 O   0  0  0  0  0  0  0  0  0  0  0  0
   38.4453   36.4802   54.7644 C   0  0  1  0  0  0  0  0  0  0  0  0
   39.1222   37.7360   55.0172 N   0  0  0  0  0  0  0  0  0  0  0  0
   38.6703   35.7104   53.5492 C   0  0  2  0  0  0  0  0  0  0  0  0
   39.5617   36.5162   52.6056 C   0  0  1  0  0  0  0  0  0  0  0  0
   35.2677   33.8401   58.5949 C   0  0  0  0  0  0  0  0  0  0  0  0
   40.1852   37.5959   52.8954 N   0  0  0  0  0  0  0  0  0  0  0  0
   39.9465   38.1843   54.0688 C   0  0  0  0  0  0  0  0  0  0  0  0
   39.8431   35.7219   51.3135 N   0  0  0  0  0  0  0  0  0  0  0  0
  1  2  1  0
  2  3  1  0
  1  4  1  6
  4  5  1  0
  3  6  1  0
  5  6  1  0
  3  7  1  6
  5  8  1  0
  6  9  1  1
  1 10  1  0
  2 11  1  0
  8 12  1  0
 13  7  1  1
 13 14  1  0
 15  9  1  6
 13 15  1  0
 15 16  1  0
 10 17  1  0
 11 17  1  0
 16 18  1  0
 14 19  1  0
 18 19  1  0
 16 20  1  1
M  END
$$$$
28
     RDKit          3D

 20 23  0  0  0  0  0  0  0  0999 V2000
   35.8381   32.9146   56.5310 N   0  0  0  0  0  0  0  0  0  0  0  0
   36.1026   32.7255   55.3209 C   0  0  1  0  0  0  0  0  0  0  0  0
   35.5790   31.5963   54.6914 N   0  0  0  0  0  0  0  0  0  0  0  0
   36.6718   33.6007   54.4407 N   0  0  0  0  0  0  0  0  0  0  0  0
   36.2893   34.1352   57.1090 C   0  0  0  0  0  0  0  0  0  0  0  0
   37.0484   33.2640   53.1764 C   0  0  2  0  0  0  0  0  0  0  0  0
   36.9233   35.0551   56.3830 C   0  0  0  0  0  0  0  0  0  0  0  0
   37.1433   34.8722   55.1197 C   0  0  1  0  0  0  0  0  0  0  0  0
   37.9045   35.5646   54.1703 N   0  0  0  0  0  0  0  0  0  0  0  0
   38.2599   35.0293   53.0030 C   0  0  2  0  0  0  0  0  0  0  0  0
   39.1937   35.9595   52.1939 N   0  0  0  0  0  0  0  0  0  0  0  0
   36.5976   31.9717   52.7522 N   0  0  0  0  0  0  0  0  0  0  0  0
   35.6193   31.3566   53.4235 C   0  0  1  0  0  0  0  0  0  0  0  0
   34.9718   30.2394   52.9213 N   0  0  0  0  0  0  0  0  0  0  0  0
   39.6187   37.1885   52.7145 C   0  0  0  0  0  0  0  0  0  0  0  0
   40.0079   35.2795   51.3536 C   0  0  0  0  0  0  0  0  0  0  0  0
   37.8470   34.0086   52.4626 C   0  0  0  0  0  0  0  0  0  0  0  0
   40.6678   37.7399   51.9197 N   0  0  0  0  0  0  0  0  0  0  0  0
   40.8968   36.4204   50.9813 N   0  0  0  0  0  0  0  0  0  0  0  0
   36.0335   34.4220   58.5251 N   0  0  0  0  0  0  0  0  0  0  0  0
  2  1  1  6
  2  3  1  0
  2  4  1  0
  1  5  1  0
  4  6  1  0
  5  7  1  0
  4  8  1  0
  8  7  1  1
  8  9  1  0
  9 10  1  0
 10 11  1  6
  6 12  1  0
  3 13  1  0
 12 13  1  0
 13 14  1  1
 11 15  1  0
 11 16  1  0
  6 17  1  1
 10 17  1  0
 15 18  1  0
 16 19  1  0
 18 19  1  0
  5 20  1  0
M  END
$$$$
29
     RDKit          3D

 20 22  0  0  0  0  0  0  0  0999 V2000
   40.1538   35.2600   51.0802 C   0  0  0  0  0  0  0  0  0  0  0  0
   40.2148   36.3392   51.9658 C   0  0  1  0  0  0  0  0  0  0  0  0
   39.1244   34.4280   51.7339 C   0  0  0  0  0  0  0  0  0  0  0  0
   41.0640   37.5087   51.5338 N   0  0  0  0  0  0  0  0  0  0  0  0
   38.5296   34.6357   52.9534 C   0  0  0  0  0  0  0  0  0  0  0  0
   39.4137   36.5361   53.1123 C   0  0  1  0  0  0  0  0  0  0  0  0
   38.7789   35.7651   53.5013 C   0  0  0  0  0  0  0  0  0  0  0  0
   39.9198   37.9856   53.5993 C   0  0  0  0  0  0  0  0  0  0  0  0
   40.9804   38.5307   52.4691 C   0  0  0  0  0  0  0  0  0  0  0  0
   37.6433   33.5148   53.4124 C   0  0  1  0  0  0  0  0  0  0  0  0
   37.3136   33.4093   54.8215 C   0  0  0  0  0  0  0  0  0  0  0  0
   36.3727   32.4675   55.2178 C   0  0  2  0  0  0  0  0  0  0  0  0
   35.9121   31.8684   54.3136 C   0  0  2  0  0  0  0  0  0  0  0  0
   34.8544   30.7486   54.6205 O   0  0  0  0  0  0  0  0  0  0  0  0
   35.7280   32.4830   56.5107 N   0  0  0  0  0  0  0  0  0  0  0  0
   35.5042   33.6242   57.2286 C   0  0  0  0  0  0  0  0  0  0  0  0
   36.3844   31.9817   52.9698 C   0  0  0  0  0  0  0  0  0  0  0  0
   35.6476   34.7972   56.6922 O   0  0  0  0  0  0  0  0  0  0  0  0
   37.1948   32.8506   52.5764 C   0  0  0  0  0  0  0  0  0  0  0  0
   35.0676   33.6585   58.5521 C   0  0  0  0  0  0  0  0  0  0  0  0
  2  1  1  6
  1  3  1  0
  2  4  1  0
  3  5  1  0
  2  6  1  0
  5  7  1  0
  6  7  1  1
  6  8  1  0
  4  9  1  0
  8  9  1  0
 10  5  1  6
 10 11  1  0
 11 12  1  0
 12 13  1  0
 13 14  1  1
 12 15  1  6
 15 16  1  0
 13 17  1  0
 16 18  2  0
 10 19  1  0
 17 19  1  0
 16 20  1  0
M  END
$$$$
3
     RDKit          3D

 16 18  0  0  0  0  0  0  0  0999 V2000
   40.5234   35.9614   51.1397 N   0  0  0  0  0  0  0  0  0  0  0  0
   39.6713   35.0294   51.4226 C   0  0  2  0  0  0  0  0  0  0  0  0
   39.1255   34.8170   52.3649 N   0  0  0  0  0  0  0  0  0  0  0  0
   39.7477   33.9833   50.3577 N   0  0  0  0  0  0  0  0  0  0  0  0
   39.1439   35.7832   53.4371 C   0  0  2  0  0  0  0  0  0  0  0  0
   40.4793   37.0412   52.1101 C   0  0  0  0  0  0  0  0  0  0  0  0
   38.3969   35.6115   54.6611 N   0  0  0  0  0  0  0  0  0  0  0  0
   39.7282   36.9710   53.4130 C   0  0  2  0  0  0  0  0  0  0  0  0
   38.6098   36.7898   55.4215 C   0  0  0  0  0  0  0  0  0  0  0  0
   37.4563   34.7191   54.9670 C   0  0  1  0  0  0  0  0  0  0  0  0
   39.4806   37.5880   54.6000 N   0  0  0  0  0  0  0  0  0  0  0  0
   37.5620   33.3908   55.0996 C   0  0  0  0  0  0  0  0  0  0  0  0
   36.2062   35.1087   55.6289 O   0  0  0  0  0  0  0  0  0  0  0  0
   36.4184   32.6167   55.0220 C   0  0  0  0  0  0  0  0  0  0  0  0
   35.2562   33.2277   55.3715 C   0  0  0  0  0  0  0  0  0  0  0  0
   35.2038   34.4728   55.7721 C   0  0  0  0  0  0  0  0  0  0  0  0
  1  2  1  0
  2  3  1  0
  2  4  1  1
  5  3  1  6
  1  6  1  0
  5  7  1  0
  5  8  1  0
  8  6  1  1
  7  9  1  0
 10  7  1  1
  8 11  1  0
  9 11  1  0
 10 12  1  0
 10 13  1  0
 12 14  1  0
 14 15  1  0
 13 16  1  0
 15 16  1  0
M  END
$$$$
30
     RDKit          3D

 20 23  0  0  0  0  0  0  0  0999 V2000
   34.9931   30.8804   53.4429 C   0  0  0  0  0  0  0  0  0  0  0  0
   34.6769   31.1653   54.5850 C   0  0  0  0  0  0  0  0  0  0  0  0
   35.7133   32.0808   55.0873 C   0  0  2  0  0  0  0  0  0  0  0  0
   35.8095   32.7196   56.3709 N   0  0  0  0  0  0  0  0  0  0  0  0
   36.6380   33.6939   56.6293 C   0  0  0  0  0  0  0  0  0  0  0  0
   36.4479   32.8370   54.1784 N   0  0  0  0  0  0  0  0  0  0  0  0
   35.7289   31.5315   52.5674 C   0  0  0  0  0  0  0  0  0  0  0  0
   37.2741   33.8631   54.7791 C   0  0  0  0  0  0  0  0  0  0  0  0
   37.3515   34.2855   55.9069 C   0  0  0  0  0  0  0  0  0  0  0  0
   38.2207   34.5109   53.7139 C   0  0  0  0  0  0  0  0  0  0  0  0
   38.3359   33.9065   52.4704 C   0  0  2  0  0  0  0  0  0  0  0  0
   36.5429   32.4220   52.9341 C   0  0  0  0  0  0  0  0  0  0  0  0
   39.2252   34.5281   51.4408 C   0  0  0  0  0  0  0  0  0  0  0  0
   39.0027   35.7250   54.0594 C   0  0  0  0  0  0  0  0  0  0  0  0
   39.8536   36.2648   53.0013 C   0  0  0  0  0  0  0  0  0  0  0  0
   39.9021   35.6785   51.7982 C   0  0  0  0  0  0  0  0  0  0  0  0
   37.5155   32.8580   52.0214 N   0  0  0  0  0  0  0  0  0  0  0  0
   40.8879   36.3994   50.6921 O   0  0  0  0  0  0  0  0  0  0  0  0
   36.5806   34.1187   58.1390 O   0  0  0  0  0  0  0  0  0  0  0  0
   36.5025   35.3084   58.3683 C   0  0  0  0  0  0  0  0  0  0  0  0
  1  2  1  0
  3  2  1  6
  3  4  1  0
  4  5  1  0
  3  6  1  0
  1  7  1  0
  6  8  1  0
  5  9  1  0
  8  9  1  0
  8 10  1  0
 10 11  1  0
  6 12  1  0
  7 12  1  0
 11 13  1  6
 10 14  1  0
 14 15  1  0
 13 16  1  0
 15 16  1  0
 11 17  1  0
 12 17  1  0
 16 18  1  0
  5 19  1  0
 19 20  1  0
M  END
$$$$
31
     RDKit          3D

 20 23  0  0  0  0  0  0  0  0999 V2000
   35.0329   30.9210   53.0522 O   0  0  0  0  0  0  0  0  0  0  0  0
   35.9482   31.6807   53.4067 C   0  0  0  0  0  0  0  0  0  0  0  0
   36.9207   32.0950   52.5101 C   0  0  0  0  0  0  0  0  0  0  0  0
   35.8187   32.4898   54.6177 N   0  0  0  0  0  0  0  0  0  0  0  0
   37.8452   33.1267   52.8266 C   0  0  1  0  0  0  0  0  0  0  0  0
   34.9028   32.1932   55.5570 O   0  0  0  0  0  0  0  0  0  0  0  0
   36.7683   33.5064   54.9204 C   0  0  0  0  0  0  0  0  0  0  0  0
   38.8569   33.5644   51.8471 C   0  0  1  0  0  0  0  0  0  0  0  0
   37.7359   33.8710   53.9920 C   0  0  2  0  0  0  0  0  0  0  0  0
   36.5894   34.0579   56.2360 C   0  0  0  0  0  0  0  0  0  0  0  0
   38.5703   35.0365   54.2057 C   0  0  2  0  0  0  0  0  0  0  0  0
   38.4889   35.8134   55.4069 C   0  0  0  0  0  0  0  0  0  0  0  0
   37.4645   35.2754   56.3913 C   0  0  0  0  0  0  0  0  0  0  0  0
   39.2363   35.3770   53.0677 C   0  0  2  0  0  0  0  0  0  0  0  0
   38.9456   32.8242   50.6602 O   0  0  0  0  0  0  0  0  0  0  0  0
   39.4179   34.7255   52.0777 C   0  0  0  0  0  0  0  0  0  0  0  0
   40.0594   36.7408   53.0734 C   0  0  0  0  0  0  0  0  0  0  0  0
   40.3539   35.1923   50.8352 N   0  0  0  0  0  0  0  0  0  0  0  0
   40.5330   37.1699   52.0513 C   0  0  0  0  0  0  0  0  0  0  0  0
   40.8000   36.4105   50.8946 N   0  0  0  0  0  0  0  0  0  0  0  0
  1  2  2  0
  2  3  1  0
  2  4  1  0
  5  3  1  6
  4  6  1  0
  4  7  1  0
  5  8  1  0
  5  9  1  0
  9  7  1  6
  7 10  1  0
  9 11  1  0
 11 12  1  6
 10 13  1  0
 12 13  1  0
 11 14  1  0
  8 15  1  6
  8 16  1  0
 14 16  1  0
 14 17  1  1
 16 18  1  0
 17 19  1  0
 18 20  1  0
 19 20  1  0
M  END
$$$$
32
     RDKit          3D

 21 23  0  0  0  0  0  0  0  0999 V2000
   35.6310   31.7763   54.9744 C   0  0  0  0  0  0  0  0  0  0  0  0
   36.2654   32.7755   55.3225 N   0  0  0  0  0  0  0  0  0  0  0  0
   36.2588   33.2455   56.6693 C   0  0  0  0  0  0  0  0  0  0  0  0
   37.4328   33.1003   54.5738 C   0  0  0  0  0  0  0  0  0  0  0  0
   36.8295   34.4977   56.8321 N   0  0  0  0  0  0  0  0  0  0  0  0
   34.6545   31.2844   55.3986 O   0  0  0  0  0  0  0  0  0  0  0  0
   37.7426   35.0732   55.9814 C   0  0  0  0  0  0  0  0  0  0  0  0
   37.9756   34.3875   54.7752 C   0  0  1  0  0  0  0  0  0  0  0  0
   38.3816   36.3079   56.4111 C   0  0  0  0  0  0  0  0  0  0  0  0
   36.0696   30.8932   53.8969 C   0  0  0  0  0  0  0  0  0  0  0  0
   38.9451   35.1287   54.0159 C   0  0  1  0  0  0  0  0  0  0  0  0
   39.2967   34.6752   52.6128 C   0  0  0  0  0  0  0  0  0  0  0  0
   38.8069   33.4941   52.0478 C   0  0  0  0  0  0  0  0  0  0  0  0
   40.3023   35.5626   51.7438 C   0  0  2  0  0  0  0  0  0  0  0  0
   40.6679   36.7739   52.2051 C   0  0  0  0  0  0  0  0  0  0  0  0
   40.0049   35.3491   50.4125 O   0  0  0  0  0  0  0  0  0  0  0  0
   40.2286   37.3778   53.5072 C   0  0  0  0  0  0  0  0  0  0  0  0
   39.1852   36.9578   55.4309 C   0  0  0  0  0  0  0  0  0  0  0  0
   39.4764   36.5028   54.2302 C   0  0  0  0  0  0  0  0  0  0  0  0
   35.3965   32.7956   57.4534 O   0  0  0  0  0  0  0  0  0  0  0  0
   34.9014   30.4389   52.9856 C   0  0  0  0  0  0  0  0  0  0  0  0
  1  2  1  0
  2  3  1  0
  2  4  1  0
  3  5  1  0
  1  6  2  0
  5  7  1  0
  8  4  1  1
  7  8  1  0
  7  9  1  0
  1 10  1  0
  8 11  1  0
 11 12  1  6
 12 13  1  0
 12 14  1  0
 14 15  1  0
 14 16  1  6
 15 17  1  0
  9 18  1  0
 11 19  1  0
 17 19  1  0
 18 19  1  0
  3 20  2  0
 10 21  1  0
M  END
$$$$
33
     RDKit          3D

 21 24  0  0  0  0  0  0  0  0999 V2000
   34.5277   30.8715   52.8149 O   0  0  0  0  0  0  0  0  0  0  0  0
   35.3990   31.2350   53.7216 C   0  0  0  0  0  0  0  0  0  0  0  0
   36.4878   32.0515   53.4080 C   0  0  1  0  0  0  0  0  0  0  0  0
   36.9289   32.2819   52.1911 C   0  0  0  0  0  0  0  0  0  0  0  0
   38.0278   33.2175   52.1097 C   0  0  0  0  0  0  0  0  0  0  0  0
   38.3277   34.0328   53.0905 C   0  0  1  0  0  0  0  0  0  0  0  0
   36.9091   32.9661   54.5826 C   0  0  0  0  0  0  0  0  0  0  0  0
   36.3781   32.8070   55.8701 N   0  0  0  0  0  0  0  0  0  0  0  0
   34.9169   31.2636   55.1145 N   0  0  0  0  0  0  0  0  0  0  0  0
   35.4401   31.9302   56.0716 C   0  0  0  0  0  0  0  0  0  0  0  0
   37.8292   33.9146   54.3881 C   0  0  0  0  0  0  0  0  0  0  0  0
   39.4315   35.0222   52.8725 C   0  0  2  0  0  0  0  0  0  0  0  0
   39.6204   36.1505   53.6553 C   0  0  2  0  0  0  0  0  0  0  0  0
   40.4722   37.2418   53.1899 C   0  0  1  0  0  0  0  0  0  0  0  0
   39.2696   36.3184   54.9800 C   0  0  0  0  0  0  0  0  0  0  0  0
   39.6303   37.4298   55.7157 C   0  0  0  0  0  0  0  0  0  0  0  0
   40.3589   38.4682   55.1573 C   0  0  0  0  0  0  0  0  0  0  0  0
   40.7451   37.1880   51.6975 N   0  0  0  0  0  0  0  0  0  0  0  0
   40.6299   36.0788   51.0606 N   0  0  0  0  0  0  0  0  0  0  0  0
   40.7907   38.5061   53.7804 C   0  0  0  0  0  0  0  0  0  0  0  0
   39.7846   35.1021   51.4857 C   0  0  0  0  0  0  0  0  0  0  0  0
  1  2  2  0
  2  3  1  0
  3  4  1  6
  4  5  1  0
  6  5  1  1
  3  7  1  0
  7  8  1  0
  2  9  1  0
  8 10  1  0
  9 10  1  0
  6 11  1  0
  7 11  1  0
  6 12  1  0
 12 13  1  0
 13 14  1  0
 13 15  1  1
 15 16  1  0
 16 17  1  0
 14 18  1  0
 18 19  1  0
 14 20  1  6
 17 20  1  0
 12 21  1  6
 19 21  1  0
M  END
$$$$
34
     RDKit          3D

 21 24  0  0  0  0  0  0  0  0999 V2000
   37.7268   32.8355   52.0418 C   0  0  0  0  0  0  0  0  0  0  0  0
   38.5120   33.7450   51.4079 C   0  0  0  0  0  0  0  0  0  0  0  0
   37.2997   33.0342   53.3131 C   0  0  0  0  0  0  0  0  0  0  0  0
   39.0766   34.8521   52.1137 C   0  0  0  0  0  0  0  0  0  0  0  0
   37.7728   34.1889   54.0332 C   0  0  2  0  0  0  0  0  0  0  0  0
   38.6038   34.8978   53.5746 C   0  0  2  0  0  0  0  0  0  0  0  0
   39.2477   36.1794   54.2961 C   0  0  1  0  0  0  0  0  0  0  0  0
   36.2523   32.0074   54.0356 C   0  0  1  0  0  0  0  0  0  0  0  0
   37.3017   34.1860   55.5671 C   0  0  0  0  0  0  0  0  0  0  0  0
   35.9221   32.2820   55.2956 C   0  0  0  0  0  0  0  0  0  0  0  0
   35.6862   31.0296   53.1888 C   0  0  0  0  0  0  0  0  0  0  0  0
   36.3604   33.2151   55.9959 C   0  0  0  0  0  0  0  0  0  0  0  0
   39.1448   36.2868   55.6094 C   0  0  1  0  0  0  0  0  0  0  0  0
   35.8795   33.4177   57.4953 C   0  0  0  0  0  0  0  0  0  0  0  0
   39.6940   37.3195   56.2933 C   0  0  0  0  0  0  0  0  0  0  0  0
   40.1074   36.9614   53.4635 C   0  0  0  0  0  0  0  0  0  0  0  0
   40.1944   36.7299   52.0636 C   0  0  0  0  0  0  0  0  0  0  0  0
   39.8974   35.7318   51.4860 N   0  0  0  0  0  0  0  0  0  0  0  0
   36.5997   33.5865   58.3505 O   0  0  0  0  0  0  0  0  0  0  0  0
   34.6997   33.1030   57.6838 O   0  0  0  0  0  0  0  0  0  0  0  0
   38.0360   35.4016   56.3019 C   0  0  0  0  0  0  0  0  0  0  0  0
  1  2  1  0
  1  3  1  0
  2  4  1  0
  5  3  1  1
  6  4  1  6
  5  6  1  0
  6  7  1  0
  3  8  1  0
  5  9  1  0
  8 10  1  0
  8 11  1  6
  9 12  1  0
 10 12  1  0
  7 13  1  0
 12 14  1  0
 13 15  1  6
  7 16  1  1
 16 17  1  0
  4 18  1  0
 17 18  1  0
 14 19  2  0
 14 20  1  0
  9 21  1  0
 13 21  1  0
M  END
$$$$
35
     RDKit          3D

 21 24  0  0  0  0  0  0  0  0999 V2000
   35.0329   30.9210   53.0522 O   0  0  0  0  0  0  0  0  0  0  0  0
   35.9482   31.6807   53.4067 C   0  0  0  0  0  0  0  0  0  0  0  0
   36.9207   32.0950   52.5101 C   0  0  0  0  0  0  0  0  0  0  0  0
   35.8187   32.4898   54.6177 N   0  0  0  0  0  0  0  0  0  0  0  0
   37.8452   33.1267   52.8266 C   0  0  1  0  0  0  0  0  0  0  0  0
   34.9028   32.1932   55.5570 O   0  0  0  0  0  0  0  0  0  0  0  0
   36.7683   33.5064   54.9204 C   0  0  0  0  0  0  0  0  0  0  0  0
   38.8569   33.5644   51.8471 C   0  0  1  0  0  0  0  0  0  0  0  0
   37.7359   33.8710   53.9920 C   0  0  2  0  0  0  0  0  0  0  0  0
   36.5894   34.0579   56.2360 C   0  0  0  0  0  0  0  0  0  0  0  0
   38.5703   35.0365   54.2057 C   0  0  2  0  0  0  0  0  0  0  0  0
   38.4889   35.8134   55.4069 C   0  0  0  0  0  0  0  0  0  0  0  0
   37.4645   35.2754   56.3913 C   0  0  0  0  0  0  0  0  0  0  0  0
   39.2363   35.3770   53.0677 C   0  0  2  0  0  0  0  0  0  0  0  0
   38.9456   32.8242   50.6602 O   0  0  0  0  0  0  0  0  0  0  0  0
   39.4179   34.7255   52.0777 C   0  0  2  0  0  0  0  0  0  0  0  0
   40.0594   36.7408   53.0734 C   0  0  0  0  0  0  0  0  0  0  0  0
   40.6528   37.0928   51.9292 C   0  0  0  0  0  0  0  0  0  0  0  0
   40.0955   35.3084   50.8687 N   0  0  0  0  0  0  0  0  0  0  0  0
   41.3545   38.3987   51.9872 N   0  0  0  0  0  0  0  0  0  0  0  0
   40.6702   36.4306   50.8274 N   0  0  0  0  0  0  0  0  0  0  0  0
  1  2  2  0
  2  3  1  0
  2  4  1  0
  5  3  1  6
  4  6  1  0
  4  7  1  0
  5  8  1  0
  5  9  1  0
  9  7  1  6
  7 10  1  0
  9 11  1  0
 11 12  1  6
 10 13  1  0
 12 13  1  0
 11 14  1  0
  8 15  1  6
  8 16  1  0
 14 16  1  0
 14 17  1  1
 17 18  1  0
 16 19  1  6
 18 20  1  0
 18 21  1  0
 19 21  1  0
M  END
$$$$
36
     RDKit          3D

 21 23  0  0  0  0  0  0  0  0999 V2000
   35.6310   31.7763   54.9744 C   0  0  0  0  0  0  0  0  0  0  0  0
   36.2654   32.7755   55.3225 N   0  0  0  0  0  0  0  0  0  0  0  0
   36.2588   33.2455   56.6693 C   0  0  0  0  0  0  0  0  0  0  0  0
   37.4328   33.1003   54.5738 C   0  0  0  0  0  0  0  0  0  0  0  0
   36.8295   34.4977   56.8321 N   0  0  0  0  0  0  0  0  0  0  0  0
   34.6545   31.2844   55.3986 O   0  0  0  0  0  0  0  0  0  0  0  0
   37.7426   35.0732   55.9814 C   0  0  0  0  0  0  0  0  0  0  0  0
   37.9756   34.3875   54.7752 C   0  0  1  0  0  0  0  0  0  0  0  0
   38.3816   36.3079   56.4111 C   0  0  0  0  0  0  0  0  0  0  0  0
   36.0696   30.8932   53.8969 C   0  0  0  0  0  0  0  0  0  0  0  0
   38.9451   35.1287   54.0159 C   0  0  1  0  0  0  0  0  0  0  0  0
   39.2967   34.6752   52.6128 C   0  0  1  0  0  0  0  0  0  0  0  0
   38.8069   33.4941   52.0478 C   0  0  0  0  0  0  0  0  0  0  0  0
   35.4555   32.8191   57.5280 O   0  0  0  0  0  0  0  0  0  0  0  0
   39.9650   35.6588   51.6403 C   0  0  0  0  0  0  0  0  0  0  0  0
   40.1727   35.2343   50.4507 O   0  0  0  0  0  0  0  0  0  0  0  0
   39.2621   36.8776   55.4003 C   0  0  0  0  0  0  0  0  0  0  0  0
   40.2314   36.8587   52.0687 N   0  0  0  0  0  0  0  0  0  0  0  0
   39.4813   36.3495   54.2497 C   0  0  2  0  0  0  0  0  0  0  0  0
   35.1790   31.0790   52.6977 C   0  0  0  0  0  0  0  0  0  0  0  0
   40.1296   37.2290   53.3032 C   0  0  0  0  0  0  0  0  0  0  0  0
  1  2  1  0
  2  3  1  0
  2  4  1  0
  3  5  1  0
  1  6  2  0
  5  7  1  0
  8  4  1  1
  7  8  1  0
  7  9  1  0
  1 10  1  0
  8 11  1  0
 11 12  1  6
 12 13  1  6
  3 14  2  0
 12 15  1  0
 15 16  2  0
  9 17  1  0
 15 18  1  0
 11 19  1  0
 19 17  1  6
 10 20  1  0
 18 21  1  0
 19 21  1  0
M  END
$$$$
37
     RDKit          3D

 21 24  0  0  0  0  0  0  0  0999 V2000
   34.9931   30.8804   53.4429 C   0  0  0  0  0  0  0  0  0  0  0  0
   36.0298   31.5796   53.0333 O   0  0  0  0  0  0  0  0  0  0  0  0
   36.5380   32.4897   53.9132 C   0  0  1  0  0  0  0  0  0  0  0  0
   37.5457   33.3877   53.5883 C   0  0  2  0  0  0  0  0  0  0  0  0
   35.7785   32.8919   55.1729 C   0  0  0  0  0  0  0  0  0  0  0  0
   36.3337   33.9197   55.9811 C   0  0  0  0  0  0  0  0  0  0  0  0
   38.3045   33.1146   52.3141 C   0  0  0  0  0  0  0  0  0  0  0  0
   39.2045   34.1336   51.8041 C   0  0  0  0  0  0  0  0  0  0  0  0
   39.8160   34.1647   50.5846 N   0  0  0  0  0  0  0  0  0  0  0  0
   39.4559   35.2963   52.6589 C   0  0  2  0  0  0  0  0  0  0  0  0
   37.4515   34.6830   55.5774 C   0  0  0  0  0  0  0  0  0  0  0  0
   38.6798   35.5535   53.7367 C   0  0  0  0  0  0  0  0  0  0  0  0
   37.9037   35.6506   56.5867 C   0  0  0  0  0  0  0  0  0  0  0  0
   37.9956   34.5160   54.3672 C   0  0  2  0  0  0  0  0  0  0  0  0
   40.1891   36.2073   51.8235 N   0  0  0  0  0  0  0  0  0  0  0  0
   35.5381   34.0397   57.3688 C   0  0  1  0  0  0  0  0  0  0  0  0
   34.5145   33.2504   57.6736 O   0  0  0  0  0  0  0  0  0  0  0  0
   37.1955   35.7522   57.8434 C   0  0  0  0  0  0  0  0  0  0  0  0
   36.0534   34.9765   58.2073 C   0  0  0  0  0  0  0  0  0  0  0  0
   40.3861   35.4919   50.6359 N   0  0  0  0  0  0  0  0  0  0  0  0
   35.3590   35.0993   59.4482 C   0  0  0  0  0  0  0  0  0  0  0  0
  1  2  1  0
  3  2  1  6
  3  4  1  0
  3  5  1  0
  5  6  1  0
  4  7  1  1
  7  8  1  0
  8  9  1  0
  8 10  1  0
  6 11  1  0
 10 12  1  6
 11 13  1  0
  4 14  1  0
 11 14  1  0
 14 12  1  6
 10 15  1  0
  6 16  1  0
 16 17  1  1
 13 18  1  0
 16 19  1  0
 18 19  1  0
  9 20  1  0
 15 20  1  0
 19 21  1  0
M  END
$$$$
38
     RDKit          3D

 21 23  0  0  0  0  0  0  0  0999 V2000
   39.5048   35.0938   50.8770 C   0  0  0  0  0  0  0  0  0  0  0  0
   39.8244   36.1500   51.7166 C   0  0  1  0  0  0  0  0  0  0  0  0
   40.4425   37.3096   51.3666 N   0  0  0  0  0  0  0  0  0  0  0  0
   39.2062   35.7816   53.0471 C   0  0  1  0  0  0  0  0  0  0  0  0
   40.3965   38.2693   52.3101 C   0  0  0  0  0  0  0  0  0  0  0  0
   38.9662   33.9388   51.4026 C   0  0  0  0  0  0  0  0  0  0  0  0
   39.9134   38.0926   53.6707 C   0  0  0  0  0  0  0  0  0  0  0  0
   38.7527   34.6977   53.2930 N   0  0  0  0  0  0  0  0  0  0  0  0
   39.3585   36.8802   54.0544 C   0  0  1  0  0  0  0  0  0  0  0  0
   38.8565   36.6702   55.4210 C   0  0  0  0  0  0  0  0  0  0  0  0
   38.5842   33.8043   52.4092 C   0  0  2  0  0  0  0  0  0  0  0  0
   37.9107   32.4064   52.9015 C   0  0  0  0  0  0  0  0  0  0  0  0
   36.6155   32.3325   52.6406 C   0  0  0  0  0  0  0  0  0  0  0  0
   35.9338   31.1929   53.4761 C   0  0  1  0  0  0  0  0  0  0  0  0
   35.7208   31.6755   54.8531 C   0  0  0  0  0  0  0  0  0  0  0  0
   35.5400   33.0214   55.0810 O   0  0  0  0  0  0  0  0  0  0  0  0
   36.4537   33.7908   55.9866 C   0  0  0  0  0  0  0  0  0  0  0  0
   35.2116   30.1478   53.1076 C   0  0  0  0  0  0  0  0  0  0  0  0
   37.0176   34.8518   55.6190 C   0  0  0  0  0  0  0  0  0  0  0  0
   36.5245   33.1996   57.0746 O   0  0  0  0  0  0  0  0  0  0  0  0
   38.3026   35.4131   55.8172 C   0  0  0  0  0  0  0  0  0  0  0  0
  2  1  1  6
  2  3  1  0
  2  4  1  0
  3  5  1  0
  1  6  1  0
  5  7  1  0
  4  8  1  1
  4  9  1  0
  9  7  1  6
  9 10  1  0
 11  6  1  1
  8 11  1  0
 11 12  1  0
 12 13  1  0
 13 14  1  0
 14 15  1  0
 15 16  1  0
 16 17  1  0
 14 18  1  6
 17 19  1  0
 17 20  2  0
 10 21  1  0
 19 21  2  3
M  END
$$$$
39
     RDKit          3D

 21 23  0  0  0  0  0  0  0  0999 V2000
   35.2602   31.4301   52.9393 O   0  0  0  0  0  0  0  0  0  0  0  0
   36.2738   31.9774   53.3380 C   0  0  0  0  0  0  0  0  0  0  0  0
   37.3703   32.4360   52.5493 N   0  0  0  0  0  0  0  0  0  0  0  0
   38.2210   33.3688   52.9450 C   0  0  2  0  0  0  0  0  0  0  0  0
   38.0935   33.9659   54.1791 N   0  0  0  0  0  0  0  0  0  0  0  0
   38.9933   34.1733   52.0202 C   0  0  0  0  0  0  0  0  0  0  0  0
   39.6456   35.3462   52.5310 C   0  0  1  0  0  0  0  0  0  0  0  0
   39.5722   35.6983   53.8252 C   0  0  0  0  0  0  0  0  0  0  0  0
   38.7786   34.9724   54.6523 C   0  0  0  0  0  0  0  0  0  0  0  0
   36.4068   32.4860   54.7687 C   0  0  2  0  0  0  0  0  0  0  0  0
   35.3517   32.0418   55.6813 N   0  0  0  0  0  0  0  0  0  0  0  0
   37.3064   33.3527   55.2766 C   0  0  2  0  0  0  0  0  0  0  0  0
   37.0207   33.7332   56.4338 N   0  0  0  0  0  0  0  0  0  0  0  0
   35.9000   32.8679   56.7827 C   0  0  1  0  0  0  0  0  0  0  0  0
   35.2851   32.9239   58.0997 N   0  0  0  0  0  0  0  0  0  0  0  0
   35.3478   33.9685   58.9593 C   0  0  0  0  0  0  0  0  0  0  0  0
   34.8252   33.8983   60.1549 C   0  0  0  0  0  0  0  0  0  0  0  0
   35.8741   34.9283   58.8174 O   0  0  0  0  0  0  0  0  0  0  0  0
   40.5045   36.0642   51.5767 C   0  0  0  0  0  0  0  0  0  0  0  0
   40.4876   35.7572   50.4101 O   0  0  0  0  0  0  0  0  0  0  0  0
   41.0474   37.1415   51.9803 O   0  0  0  0  0  0  0  0  0  0  0  0
  1  2  2  0
  2  3  1  0
  3  4  1  0
  4  5  1  0
  4  6  1  6
  6  7  1  0
  7  8  1  0
  5  9  1  0
  8  9  1  0
  2 10  1  0
 10 11  1  6
  5 12  1  0
 10 12  1  0
 12 13  1  6
 11 14  1  0
 13 14  1  0
 14 15  1  6
 15 16  1  0
 16 17  1  0
 16 18  2  0
  7 19  1  1
 19 20  2  0
 19 21  1  0
M  END
$$$$
4
     RDKit          3D

 17 19  0  0  0  0  0  0  0  0999 V2000
   39.5048   35.0938   50.8770 C   0  0  0  0  0  0  0  0  0  0  0  0
   39.8244   36.1500   51.7166 C   0  0  1  0  0  0  0  0  0  0  0  0
   40.4425   37.3096   51.3666 N   0  0  0  0  0  0  0  0  0  0  0  0
   39.2062   35.7816   53.0471 C   0  0  0  0  0  0  0  0  0  0  0  0
   38.9236   33.9348   51.2897 N   0  0  0  0  0  0  0  0  0  0  0  0
   40.5756   38.2782   52.4139 C   0  0  0  0  0  0  0  0  0  0  0  0
   41.1824   39.3704   52.1492 N   0  0  0  0  0  0  0  0  0  0  0  0
   40.0364   37.9949   53.7332 C   0  0  0  0  0  0  0  0  0  0  0  0
   38.5892   34.1212   52.6227 C   0  0  0  0  0  0  0  0  0  0  0  0
   37.9448   33.4156   53.5300 C   0  0  0  0  0  0  0  0  0  0  0  0
   39.4008   36.9067   53.9335 C   0  0  0  0  0  0  0  0  0  0  0  0
   36.8794   32.6374   53.0980 C   0  0  0  0  0  0  0  0  0  0  0  0
   38.2662   33.4673   54.9343 C   0  0  0  0  0  0  0  0  0  0  0  0
   36.0619   31.9108   54.2014 C   0  0  0  0  0  0  0  0  0  0  0  0
   37.4664   32.8025   55.8700 C   0  0  0  0  0  0  0  0  0  0  0  0
   36.4034   32.0604   55.4887 C   0  0  0  0  0  0  0  0  0  0  0  0
   34.9792   31.0898   53.7038 O   0  0  0  0  0  0  0  0  0  0  0  0
  2  1  1  6
  2  3  1  0
  2  4  1  0
  1  5  1  0
  3  6  1  0
  6  7  1  0
  6  8  1  0
  4  9  1  0
  5  9  1  0
  9 10  1  0
  4 11  1  0
  8 11  1  0
 10 12  1  0
 10 13  1  0
 12 14  1  0
 13 15  1  0
 14 16  1  0
 15 16  1  0
 14 17  1  0
M  END
$$$$
40
     RDKit          3D

 21 24  0  0  0  0  0  0  0  0999 V2000
   35.0329   30.9210   53.0522 O   0  0  0  0  0  0  0  0  0  0  0  0
   35.9482   31.6807   53.4067 C   0  0  0  0  0  0  0  0  0  0  0  0
   36.9207   32.0950   52.5101 C   0  0  0  0  0  0  0  0  0  0  0  0
   35.8187   32.4898   54.6177 N   0  0  0  0  0  0  0  0  0  0  0  0
   37.8452   33.1267   52.8266 C   0  0  1  0  0  0  0  0  0  0  0  0
   34.9028   32.1932   55.5570 O   0  0  0  0  0  0  0  0  0  0  0  0
   36.7683   33.5064   54.9204 C   0  0  0  0  0  0  0  0  0  0  0  0
   38.8569   33.5644   51.8471 C   0  0  0  0  0  0  0  0  0  0  0  0
   37.7359   33.8710   53.9920 C   0  0  2  0  0  0  0  0  0  0  0  0
   36.5894   34.0579   56.2360 C   0  0  2  0  0  0  0  0  0  0  0  0
   38.5703   35.0365   54.2057 C   0  0  2  0  0  0  0  0  0  0  0  0
   38.4889   35.8134   55.4069 C   0  0  0  0  0  0  0  0  0  0  0  0
   37.4645   35.2754   56.3913 C   0  0  0  0  0  0  0  0  0  0  0  0
   37.3415   36.1245   57.8152 C   0  0  0  0  0  0  0  0  0  0  0  0
   39.4333   34.8286   52.0382 C   0  0  1  0  0  0  0  0  0  0  0  0
   36.5059   35.6905   58.6411 C   0  0  0  0  0  0  0  0  0  0  0  0
   39.3681   35.5236   53.2456 C   0  0  0  0  0  0  0  0  0  0  0  0
   40.3868   35.2776   50.9488 N   0  0  0  0  0  0  0  0  0  0  0  0
   35.8128   34.3794   58.5623 C   0  0  0  0  0  0  0  0  0  0  0  0
   35.8778   33.6936   57.3512 C   0  0  0  0  0  0  0  0  0  0  0  0
   40.5902   36.5410   50.9827 O   0  0  0  0  0  0  0  0  0  0  0  0
  1  2  2  0
  2  3  1  0
  2  4  1  0
  5  3  1  6
  4  6  1  0
  4  7  1  0
  5  8  1  0
  5  9  1  0
  9  7  1  6
  7 10  1  0
  9 11  1  0
 11 12  1  6
 10 13  1  0
 12 13  1  0
 13 14  1  0
  8 15  1  0
 14 16  1  0
 11 17  1  0
 15 17  1  0
 15 18  1  1
 16 19  1  0
 10 20  1  1
 19 20  1  0
 18 21  1  0
M  END
$$$$
41
     RDKit          3D

 21 25  0  0  0  0  0  0  0  0999 V2000
   37.7268   32.8355   52.0418 C   0  0  0  0  0  0  0  0  0  0  0  0
   38.5120   33.7450   51.4079 C   0  0  0  0  0  0  0  0  0  0  0  0
   37.2997   33.0342   53.3131 C   0  0  0  0  0  0  0  0  0  0  0  0
   39.0766   34.8521   52.1137 C   0  0  2  0  0  0  0  0  0  0  0  0
   37.7728   34.1889   54.0332 C   0  0  2  0  0  0  0  0  0  0  0  0
   38.6038   34.8978   53.5746 C   0  0  2  0  0  0  0  0  0  0  0  0
   39.2948   36.1271   54.1259 C   0  0  1  0  0  0  0  0  0  0  0  0
   37.2457   34.2090   55.4622 C   0  0  1  0  0  0  0  0  0  0  0  0
   39.2071   36.5223   55.4538 N   0  0  0  0  0  0  0  0  0  0  0  0
   40.2830   36.8952   53.3623 N   0  0  0  0  0  0  0  0  0  0  0  0
   40.3562   36.5519   51.9784 C   0  0  0  0  0  0  0  0  0  0  0  0
   39.6887   37.6416   55.8891 C   0  0  0  0  0  0  0  0  0  0  0  0
   39.8225   35.7166   51.4680 N   0  0  0  0  0  0  0  0  0  0  0  0
   37.3634   35.3143   56.2935 N   0  0  0  0  0  0  0  0  0  0  0  0
   36.4585   33.1857   55.9784 N   0  0  0  0  0  0  0  0  0  0  0  0
   38.3759   35.9775   56.3535 C   0  0  2  0  0  0  0  0  0  0  0  0
   36.3545   32.2299   54.0383 N   0  0  0  0  0  0  0  0  0  0  0  0
   38.4012   36.9716   57.4505 N   0  0  0  0  0  0  0  0  0  0  0  0
   39.2818   37.8862   57.1601 C   0  0  0  0  0  0  0  0  0  0  0  0
   37.5752   36.7786   58.6768 C   0  0  0  0  0  0  0  0  0  0  0  0
   36.0337   32.3695   55.2529 C   0  0  0  0  0  0  0  0  0  0  0  0
  1  2  1  0
  1  3  1  0
  4  2  1  6
  5  3  1  1
  6  4  1  6
  5  6  1  0
  6  7  1  0
  5  8  1  0
  7  9  1  0
  7 10  1  1
 10 11  1  0
  9 12  1  0
  4 13  1  0
 11 13  1  0
  8 14  1  6
  8 15  1  0
  9 16  1  0
 16 14  1  6
  3 17  1  0
 16 18  1  0
 12 19  1  0
 18 19  1  0
 18 20  1  0
 15 21  1  0
 17 21  1  0
M  END
$$$$
42
     RDKit          3D

 21 24  0  0  0  0  0  0  0  0999 V2000
   39.5048   35.0938   50.8770 C   0  0  0  0  0  0  0  0  0  0  0  0
   38.8782   34.1132   51.4924 C   0  0  0  0  0  0  0  0  0  0  0  0
   38.4612   34.3153   52.8278 C   0  0  0  0  0  0  0  0  0  0  0  0
   39.9522   36.2363   51.5889 C   0  0  0  0  0  0  0  0  0  0  0  0
   38.7256   35.3500   53.3942 C   0  0  0  0  0  0  0  0  0  0  0  0
   37.6601   33.1720   53.4088 C   0  0  0  0  0  0  0  0  0  0  0  0
   38.2806   35.5704   54.7787 C   0  0  2  0  0  0  0  0  0  0  0  0
   39.5300   36.4533   52.8254 C   0  0  0  0  0  0  0  0  0  0  0  0
   37.5425   34.5606   55.4074 C   0  0  2  0  0  0  0  0  0  0  0  0
   38.3878   36.9123   55.4154 C   0  0  0  0  0  0  0  0  0  0  0  0
   37.1258   34.8506   56.8146 C   0  0  0  0  0  0  0  0  0  0  0  0
   37.3124   33.3517   54.8312 C   0  0  0  0  0  0  0  0  0  0  0  0
   36.4665   33.8758   57.6586 C   0  0  0  0  0  0  0  0  0  0  0  0
   37.9648   37.0601   56.7573 C   0  0  0  0  0  0  0  0  0  0  0  0
   37.3838   36.1469   57.3441 C   0  0  0  0  0  0  0  0  0  0  0  0
   36.9160   36.3830   58.7716 C   0  0  1  0  0  0  0  0  0  0  0  0
   36.9730   37.6178   59.3701 C   0  0  0  0  0  0  0  0  0  0  0  0
   35.9883   34.0832   58.8929 C   0  0  0  0  0  0  0  0  0  0  0  0
   36.3684   38.7335   58.8136 O   0  0  0  0  0  0  0  0  0  0  0  0
   35.1254   38.5970   58.5049 C   0  0  0  0  0  0  0  0  0  0  0  0
   36.2564   35.2127   59.4000 C   0  0  0  0  0  0  0  0  0  0  0  0
  1  2  1  0
  2  3  1  0
  1  4  1  0
  3  5  1  0
  3  6  1  0
  5  7  1  0
  4  8  1  0
  5  8  1  0
  7  9  1  0
  7 10  1  6
  9 11  1  0
  6 12  1  0
  9 12  1  1
 11 13  1  0
 10 14  1  0
 11 15  1  0
 14 15  1  0
 15 16  1  0
 16 17  1  6
 13 18  1  0
 17 19  1  0
 19 20  1  0
 16 21  1  0
 18 21  1  0
M  END
$$$$
43
     RDKit          3D

 21 22  0  0  0  0  0  0  0  0999 V2000
   39.5048   35.0938   50.8770 C   0  0  0  0  0  0  0  0  0  0  0  0
   38.8782   34.1132   51.4924 C   0  0  0  0  0  0  0  0  0  0  0  0
   38.4612   34.3153   52.8278 C   0  0  0  0  0  0  0  0  0  0  0  0
   39.9522   36.2363   51.5889 C   0  0  0  0  0  0  0  0  0  0  0  0
   39.4986   36.3814   52.9018 C   0  0  0  0  0  0  0  0  0  0  0  0
   38.7681   35.4463   53.5196 C   0  0  0  0  0  0  0  0  0  0  0  0
   37.6919   33.2379   53.5117 C   0  0  1  0  0  0  0  0  0  0  0  0
   38.0725   32.8935   54.8339 O   0  0  0  0  0  0  0  0  0  0  0  0
   36.6110   32.6415   53.0900 O   0  0  0  0  0  0  0  0  0  0  0  0
   37.0032   32.1882   55.3807 C   0  0  1  0  0  0  0  0  0  0  0  0
   36.5695   32.6232   56.6316 C   0  0  0  0  0  0  0  0  0  0  0  0
   39.8438   37.6685   53.6215 C   0  0  0  0  0  0  0  0  0  0  0  0
   35.9744   34.0134   56.5015 C   0  0  0  0  0  0  0  0  0  0  0  0
   36.0737   31.6456   54.0481 C   0  0  0  0  0  0  0  0  0  0  0  0
   35.1857   30.8891   53.9203 O   0  0  0  0  0  0  0  0  0  0  0  0
   35.4843   34.6279   57.7142 C   0  0  0  0  0  0  0  0  0  0  0  0
   35.3179   33.9918   58.7566 O   0  0  0  0  0  0  0  0  0  0  0  0
   40.4431   38.6338   53.0013 O   0  0  0  0  0  0  0  0  0  0  0  0
   39.5825   37.9230   54.8743 N   0  0  0  0  0  0  0  0  0  0  0  0
   35.3695   35.9000   57.8976 O   0  0  0  0  0  0  0  0  0  0  0  0
   40.0206   39.1151   55.5738 C   0  0  0  0  0  0  0  0  0  0  0  0
  1  2  1  0
  2  3  1  0
  1  4  1  0
  4  5  1  0
  3  6  1  0
  5  6  1  0
  7  3  1  1
  7  8  1  0
  7  9  1  0
  8 10  1  0
 10 11  1  1
  5 12  1  0
 11 13  1  0
  9 14  1  0
 10 14  1  0
 14 15  2  0
 13 16  1  0
 16 17  1  0
 12 18  2  0
 12 19  1  0
 16 20  2  0
 19 21  1  0
M  END
$$$$
44
     RDKit          3D

 21 23  0  0  0  0  0  0  0  0999 V2000
   34.8956   30.9053   52.9411 O   0  0  0  0  0  0  0  0  0  0  0  0
   35.8073   31.6009   53.4192 C   0  0  0  0  0  0  0  0  0  0  0  0
   35.8469   32.1203   54.7079 C   0  0  0  0  0  0  0  0  0  0  0  0
   36.7553   32.2043   52.4871 C   0  0  0  0  0  0  0  0  0  0  0  0
   36.7394   33.0259   55.2345 C   0  0  2  0  0  0  0  0  0  0  0  0
   37.6182   33.2006   52.9533 C   0  0  1  0  0  0  0  0  0  0  0  0
   36.6349   33.4771   56.5445 N   0  0  0  0  0  0  0  0  0  0  0  0
   37.5654   33.6322   54.3193 N   0  0  0  0  0  0  0  0  0  0  0  0
   38.6879   33.8251   52.1175 C   0  0  1  0  0  0  0  0  0  0  0  0
   38.9118   33.5214   50.9021 N   0  0  0  0  0  0  0  0  0  0  0  0
   39.4153   35.0054   52.6222 C   0  0  2  0  0  0  0  0  0  0  0  0
   35.8697   32.8517   57.3809 N   0  0  0  0  0  0  0  0  0  0  0  0
   39.3916   35.7649   53.7795 C   0  0  0  0  0  0  0  0  0  0  0  0
   35.8722   33.3345   58.7765 C   0  0  0  0  0  0  0  0  0  0  0  0
   40.1234   35.4689   51.4468 C   0  0  0  0  0  0  0  0  0  0  0  0
   40.8178   36.5628   51.3213 N   0  0  0  0  0  0  0  0  0  0  0  0
   40.0916   37.0272   53.7811 C   0  0  0  0  0  0  0  0  0  0  0  0
   35.3761   34.4938   59.1344 C   0  0  0  0  0  0  0  0  0  0  0  0
   36.5470   32.4889   59.6359 O   0  0  0  0  0  0  0  0  0  0  0  0
   39.8449   34.4912   50.4474 N   0  0  0  0  0  0  0  0  0  0  0  0
   40.7931   37.3774   52.5097 C   0  0  0  0  0  0  0  0  0  0  0  0
  1  2  2  0
  2  3  1  0
  2  4  1  0
  3  5  1  0
  6  4  1  1
  5  7  1  6
  5  8  1  0
  6  8  1  0
  6  9  1  0
  9 10  1  6
  9 11  1  0
  7 12  1  0
 11 13  1  6
 12 14  1  0
 11 15  1  0
 15 16  1  0
 13 17  1  0
 14 18  1  0
 14 19  2  0
 10 20  1  0
 15 20  1  0
 16 21  1  0
 17 21  1  0
M  END
$$$$
45
     RDKit          3D

 21 24  0  0  0  0  0  0  0  0999 V2000
   35.6310   31.7763   54.9744 C   0  0  0  0  0  0  0  0  0  0  0  0
   36.2654   32.7755   55.3225 C   0  0  0  0  0  0  0  0  0  0  0  0
   35.5410   31.3666   53.6325 C   0  0  1  0  0  0  0  0  0  0  0  0
   36.3462   31.9929   52.7154 C   0  0  0  0  0  0  0  0  0  0  0  0
   37.0447   33.3618   54.4565 C   0  0  0  0  0  0  0  0  0  0  0  0
   37.1943   33.0509   53.2990 C   0  0  2  0  0  0  0  0  0  0  0  0
   38.1246   33.7628   52.3270 C   0  0  2  0  0  0  0  0  0  0  0  0
   34.7520   30.2949   53.1945 C   0  0  0  0  0  0  0  0  0  0  0  0
   37.8956   34.5611   54.8861 C   0  0  2  0  0  0  0  0  0  0  0  0
   37.8023   35.0763   56.1834 O   0  0  0  0  0  0  0  0  0  0  0  0
   38.1897   36.3576   56.3400 C   0  0  1  0  0  0  0  0  0  0  0  0
   39.0071   36.8337   55.3408 C   0  0  0  0  0  0  0  0  0  0  0  0
   38.4037   33.3297   51.0061 N   0  0  0  0  0  0  0  0  0  0  0  0
   39.3631   34.1557   50.5425 N   0  0  0  0  0  0  0  0  0  0  0  0
   38.6749   35.1992   53.9423 C   0  0  1  0  0  0  0  0  0  0  0  0
   39.5887   35.1015   51.4693 C   0  0  0  0  0  0  0  0  0  0  0  0
   38.9122   34.7644   52.4963 C   0  0  0  0  0  0  0  0  0  0  0  0
   39.2717   36.3886   54.1999 N   0  0  0  0  0  0  0  0  0  0  0  0
   40.5343   36.2783   51.2496 C   0  0  0  0  0  0  0  0  0  0  0  0
   36.9986   37.2384   56.3915 C   0  0  0  0  0  0  0  0  0  0  0  0
   37.0901   38.4242   56.8272 O   0  0  0  0  0  0  0  0  0  0  0  0
  1  2  1  0
  1  3  1  0
  3  4  1  0
  2  5  1  0
  6  4  1  6
  5  6  1  0
  6  7  1  0
  3  8  1  1
  5  9  1  0
  9 10  1  6
 10 11  1  0
 11 12  1  0
  7 13  1  1
 13 14  1  0
  9 15  1  0
 14 16  1  0
  7 17  1  0
 15 17  1  0
 16 17  1  0
 12 18  1  0
 15 18  1  6
 16 19  1  0
 11 20  1  6
 20 21  1  0
M  END
$$$$
46
     RDKit          3D

 21 24  0  0  0  0  0  0  0  0999 V2000
   40.5234   35.9614   51.1397 N   0  0  0  0  0  0  0  0  0  0  0  0
   39.6713   35.0294   51.4226 C   0  0  2  0  0  0  0  0  0  0  0  0
   39.1255   34.8170   52.3649 N   0  0  0  0  0  0  0  0  0  0  0  0
   40.3024   36.9475   52.2143 C   0  0  0  0  0  0  0  0  0  0  0  0
   39.8945   33.8447   50.3297 N   0  0  0  0  0  0  0  0  0  0  0  0
   39.0478   35.7742   53.2903 C   0  0  0  0  0  0  0  0  0  0  0  0
   41.1032   38.2314   52.0354 N   0  0  0  0  0  0  0  0  0  0  0  0
   38.1647   35.4757   54.4999 N   0  0  0  0  0  0  0  0  0  0  0  0
   38.1178   36.5501   55.4849 C   0  0  2  0  0  0  0  0  0  0  0  0
   37.3112   36.2545   56.5998 N   0  0  0  0  0  0  0  0  0  0  0  0
   37.1327   37.2091   57.6049 C   0  0  0  0  0  0  0  0  0  0  0  0
   36.8064   35.0819   56.9890 C   0  0  1  0  0  0  0  0  0  0  0  0
   36.5963   36.6793   58.7130 N   0  0  0  0  0  0  0  0  0  0  0  0
   36.2931   35.3415   58.3340 C   0  0  2  0  0  0  0  0  0  0  0  0
   39.6272   36.8819   53.2253 C   0  0  2  0  0  0  0  0  0  0  0  0
   35.6693   34.3398   59.1573 C   0  0  0  0  0  0  0  0  0  0  0  0
   38.1298   37.8514   55.3565 C   0  0  0  0  0  0  0  0  0  0  0  0
   36.5974   33.8237   56.3009 C   0  0  0  0  0  0  0  0  0  0  0  0
   39.4327   38.0757   54.2064 C   0  0  0  0  0  0  0  0  0  0  0  0
   35.9169   32.8786   57.0414 N   0  0  0  0  0  0  0  0  0  0  0  0
   35.4945   33.1908   58.4667 C   0  0  0  0  0  0  0  0  0  0  0  0
  1  2  1  0
  2  3  1  0
  1  4  1  0
  2  5  1  1
  3  6  1  0
  4  7  1  0
  6  8  1  0
  8  9  1  0
  9 10  1  6
 10 11  1  0
 10 12  1  0
 11 13  1  0
 12 14  1  0
 13 14  1  0
  4 15  1  0
  6 15  1  0
 14 16  1  1
  9 17  1  0
 12 18  1  6
 15 19  1  6
 17 19  1  0
 18 20  1  0
 16 21  1  0
 20 21  1  0
M  END
$$$$
47
     RDKit          3D

 21 26  0  0  0  0  0  0  0  0999 V2000
   35.6310   31.7763   54.9744 C   0  0  0  0  0  0  0  0  0  0  0  0
   36.2654   32.7755   55.3225 C   0  0  2  0  0  0  0  0  0  0  0  0
   35.5410   31.3666   53.6325 C   0  0  0  0  0  0  0  0  0  0  0  0
   36.3462   31.9929   52.7154 C   0  0  0  0  0  0  0  0  0  0  0  0
   37.0447   33.3618   54.4565 C   0  0  1  0  0  0  0  0  0  0  0  0
   37.1943   33.0509   53.2990 C   0  0  2  0  0  0  0  0  0  0  0  0
   38.1246   33.7628   52.3270 C   0  0  2  0  0  0  0  0  0  0  0  0
   38.5930   33.1888   51.1417 N   0  0  0  0  0  0  0  0  0  0  0  0
   38.7380   35.0411   52.6537 C   0  0  2  0  0  0  0  0  0  0  0  0
   39.5318   34.0338   50.5520 N   0  0  0  0  0  0  0  0  0  0  0  0
   39.6928   35.1722   51.4447 C   0  0  1  0  0  0  0  0  0  0  0  0
   38.7691   35.9845   53.6280 C   0  0  2  0  0  0  0  0  0  0  0  0
   36.2481   33.1755   56.7510 C   0  0  0  0  0  0  0  0  0  0  0  0
   37.9914   35.9542   54.7556 C   0  0  1  0  0  0  0  0  0  0  0  0
   35.7784   32.5253   57.8086 O   0  0  0  0  0  0  0  0  0  0  0  0
   40.5426   36.2713   51.1781 N   0  0  0  0  0  0  0  0  0  0  0  0
   36.7683   34.5147   57.0106 N   0  0  0  0  0  0  0  0  0  0  0  0
   39.5252   37.2368   53.3339 C   0  0  0  0  0  0  0  0  0  0  0  0
   37.4424   34.5157   55.1103 N   0  0  0  0  0  0  0  0  0  0  0  0
   37.4637   35.2237   56.2344 C   0  0  1  0  0  0  0  0  0  0  0  0
   40.4017   37.2959   52.1809 C   0  0  0  0  0  0  0  0  0  0  0  0
  2  1  1  1
  1  3  1  0
  3  4  1  0
  2  5  1  0
  6  4  1  6
  5  6  1  0
  6  7  1  0
  7  8  1  1
  7  9  1  0
  8 10  1  0
  9 11  1  1
 11 10  1  6
  9 12  1  0
  2 13  1  0
 12 14  1  0
 13 15  2  0
 11 16  1  0
 13 17  1  0
 12 18  1  6
  5 19  1  6
 14 19  1  6
 14 20  1  0
 20 17  1  6
 19 20  1  0
 16 21  1  0
 18 21  1  0
M  END
$$$$
48
     RDKit          3D

 22 25  0  0  0  0  0  0  0  0999 V2000
   34.9931   30.8804   53.4429 C   0  0  0  0  0  0  0  0  0  0  0  0
   36.0298   31.5796   53.0333 O   0  0  0  0  0  0  0  0  0  0  0  0
   36.5380   32.4897   53.9132 C   0  0  1  0  0  0  0  0  0  0  0  0
   37.5457   33.3877   53.5883 C   0  0  2  0  0  0  0  0  0  0  0  0
   35.7785   32.8919   55.1729 C   0  0  0  0  0  0  0  0  0  0  0  0
   36.3337   33.9197   55.9811 C   0  0  0  0  0  0  0  0  0  0  0  0
   38.3045   33.1146   52.3141 C   0  0  0  0  0  0  0  0  0  0  0  0
   39.2045   34.1336   51.8041 C   0  0  0  0  0  0  0  0  0  0  0  0
   39.8160   34.1647   50.5846 N   0  0  0  0  0  0  0  0  0  0  0  0
   39.4559   35.2963   52.6589 C   0  0  2  0  0  0  0  0  0  0  0  0
   37.4515   34.6830   55.5774 C   0  0  0  0  0  0  0  0  0  0  0  0
   38.6798   35.5535   53.7367 C   0  0  0  0  0  0  0  0  0  0  0  0
   37.9037   35.6506   56.5867 C   0  0  0  0  0  0  0  0  0  0  0  0
   37.9956   34.5160   54.3672 C   0  0  2  0  0  0  0  0  0  0  0  0
   40.1891   36.2073   51.8235 N   0  0  0  0  0  0  0  0  0  0  0  0
   35.5381   34.0397   57.3688 C   0  0  1  0  0  0  0  0  0  0  0  0
   34.5145   33.2504   57.6736 O   0  0  0  0  0  0  0  0  0  0  0  0
   37.1955   35.7522   57.8434 C   0  0  0  0  0  0  0  0  0  0  0  0
   36.0534   34.9765   58.2073 C   0  0  1  0  0  0  0  0  0  0  0  0
   40.3861   35.4919   50.6359 N   0  0  0  0  0  0  0  0  0  0  0  0
   35.3701   35.2030   59.4438 O   0  0  0  0  0  0  0  0  0  0  0  0
   34.1880   35.8557   59.4839 C   0  0  0  0  0  0  0  0  0  0  0  0
  1  2  1  0
  3  2  1  6
  3  4  1  0
  3  5  1  0
  5  6  1  0
  4  7  1  1
  7  8  1  0
  8  9  1  0
  8 10  1  0
  6 11  1  0
 10 12  1  6
 11 13  1  0
  4 14  1  0
 11 14  1  0
 14 12  1  6
 10 15  1  0
  6 16  1  0
 16 17  1  1
 13 18  1  0
 16 19  1  0
 18 19  1  0
  9 20  1  0
 15 20  1  0
 19 21  1  6
 21 22  1  0
M  END
$$$$
49
     RDKit          3D

 22 25  0  0  0  0  0  0  0  0999 V2000
   40.5234   35.9614   51.1397 N   0  0  0  0  0  0  0  0  0  0  0  0
   40.5658   36.9274   52.0201 C   0  0  0  0  0  0  0  0  0  0  0  0
   39.6936   34.9150   51.4035 C   0  0  0  0  0  0  0  0  0  0  0  0
   39.6109   36.7071   53.1794 C   0  0  0  0  0  0  0  0  0  0  0  0
   38.8764   35.6389   53.3646 C   0  0  0  0  0  0  0  0  0  0  0  0
   38.9275   34.6685   52.3822 C   0  0  0  0  0  0  0  0  0  0  0  0
   38.0072   35.4119   54.4743 N   0  0  0  0  0  0  0  0  0  0  0  0
   38.1111   33.4827   52.6002 C   0  0  0  0  0  0  0  0  0  0  0  0
   37.3923   33.2980   53.4605 N   0  0  0  0  0  0  0  0  0  0  0  0
   38.2181   32.3349   51.5710 O   0  0  0  0  0  0  0  0  0  0  0  0
   36.5832   32.1101   53.7443 C   0  0  0  0  0  0  0  0  0  0  0  0
   36.1240   31.4232   52.8914 O   0  0  0  0  0  0  0  0  0  0  0  0
   37.3487   34.2433   54.6082 C   0  0  2  0  0  0  0  0  0  0  0  0
   36.4440   33.7711   55.4815 C   0  0  2  0  0  0  0  0  0  0  0  0
   35.9279   32.4941   54.9736 C   0  0  2  0  0  0  0  0  0  0  0  0
   35.0181   31.6438   55.6587 O   0  0  0  0  0  0  0  0  0  0  0  0
   36.0020   34.4504   56.6180 C   0  0  0  0  0  0  0  0  0  0  0  0
   35.4087   35.6403   56.6357 C   0  0  0  0  0  0  0  0  0  0  0  0
   36.4335   33.9181   57.8343 C   0  0  0  0  0  0  0  0  0  0  0  0
   35.9818   34.3301   58.9613 C   0  0  0  0  0  0  0  0  0  0  0  0
   34.9753   36.1919   57.8322 C   0  0  0  0  0  0  0  0  0  0  0  0
   35.3917   35.5942   58.9943 C   0  0  0  0  0  0  0  0  0  0  0  0
  1  2  1  0
  1  3  1  0
  2  4  1  0
  4  5  1  0
  3  6  1  0
  5  6  1  0
  5  7  1  0
  6  8  1  0
  8  9  1  0
  8 10  2  0
  9 11  1  0
 11 12  2  0
 13  7  1  6
  9 13  1  0
 13 14  1  0
 11 15  1  0
 14 15  1  0
 15 16  1  1
 14 17  1  6
 17 18  1  0
 17 19  1  0
 19 20  1  0
 18 21  1  0
 20 22  1  0
 21 22  1  0
M  END
$$$$
5
     RDKit          3D

 17 19  0  0  0  0  0  0  0  0999 V2000
   40.5234   35.9614   51.1397 N   0  0  0  0  0  0  0  0  0  0  0  0
   39.6713   35.0294   51.4226 C   0  0  2  0  0  0  0  0  0  0  0  0
   39.1255   34.8170   52.3649 N   0  0  0  0  0  0  0  0  0  0  0  0
   39.7477   33.9833   50.3577 N   0  0  0  0  0  0  0  0  0  0  0  0
   39.1439   35.7832   53.4371 C   0  0  2  0  0  0  0  0  0  0  0  0
   40.4793   37.0412   52.1101 C   0  0  0  0  0  0  0  0  0  0  0  0
   38.3969   35.6115   54.6611 N   0  0  0  0  0  0  0  0  0  0  0  0
   39.7282   36.9710   53.4130 C   0  0  2  0  0  0  0  0  0  0  0  0
   38.6098   36.7898   55.4215 C   0  0  0  0  0  0  0  0  0  0  0  0
   37.4563   34.7191   54.9670 C   0  0  1  0  0  0  0  0  0  0  0  0
   39.4806   37.5880   54.6000 N   0  0  0  0  0  0  0  0  0  0  0  0
   37.5620   33.3908   55.0996 C   0  0  0  0  0  0  0  0  0  0  0  0
   36.2062   35.1087   55.6289 O   0  0  0  0  0  0  0  0  0  0  0  0
   36.3705   32.7137   55.5389 C   0  0  2  0  0  0  0  0  0  0  0  0
   35.9897   31.4640   55.3423 O   0  0  0  0  0  0  0  0  0  0  0  0
   35.3406   33.8149   55.3717 C   0  0  0  0  0  0  0  0  0  0  0  0
   35.2144   31.2143   54.1342 C   0  0  0  0  0  0  0  0  0  0  0  0
  1  2  1  0
  2  3  1  0
  2  4  1  1
  5  3  1  6
  1  6  1  0
  5  7  1  0
  5  8  1  0
  8  6  1  1
  7  9  1  0
 10  7  1  1
  8 11  1  0
  9 11  1  0
 10 12  1  0
 10 13  1  0
 12 14  1  0
 14 15  1  6
 13 16  1  0
 14 16  1  0
 15 17  1  0
M  END
$$$$
50
     RDKit          3D

 22 26  0  0  0  0  0  0  0  0999 V2000
   34.5277   30.8715   52.8149 O   0  0  0  0  0  0  0  0  0  0  0  0
   35.3990   31.2350   53.7216 C   0  0  0  0  0  0  0  0  0  0  0  0
   36.4878   32.0515   53.4080 C   0  0  1  0  0  0  0  0  0  0  0  0
   36.9289   32.2819   52.1911 C   0  0  0  0  0  0  0  0  0  0  0  0
   38.0278   33.2175   52.1097 C   0  0  0  0  0  0  0  0  0  0  0  0
   38.3277   34.0328   53.0905 C   0  0  1  0  0  0  0  0  0  0  0  0
   36.9091   32.9661   54.5826 C   0  0  0  0  0  0  0  0  0  0  0  0
   36.3781   32.8070   55.8701 N   0  0  0  0  0  0  0  0  0  0  0  0
   34.9169   31.2636   55.1145 N   0  0  0  0  0  0  0  0  0  0  0  0
   35.4401   31.9302   56.0716 C   0  0  0  0  0  0  0  0  0  0  0  0
   37.8292   33.9146   54.3881 C   0  0  2  0  0  0  0  0  0  0  0  0
   39.4315   35.0222   52.8725 C   0  0  1  0  0  0  0  0  0  0  0  0
   40.0130   35.0656   51.6011 C   0  0  0  0  0  0  0  0  0  0  0  0
   39.1902   36.3688   53.4701 C   0  0  1  0  0  0  0  0  0  0  0  0
   40.5986   36.1687   51.1048 N   0  0  0  0  0  0  0  0  0  0  0  0
   40.6214   37.3425   51.7738 C   0  0  0  0  0  0  0  0  0  0  0  0
   38.7597   36.4286   54.8481 N   0  0  0  0  0  0  0  0  0  0  0  0
   40.1403   37.4181   53.1108 N   0  0  0  0  0  0  0  0  0  0  0  0
   38.5632   37.5491   55.4257 C   0  0  0  0  0  0  0  0  0  0  0  0
   37.9678   37.5059   56.7090 C   0  0  0  0  0  0  0  0  0  0  0  0
   38.3486   35.2713   55.5090 S   0  0  1  0  0  0  0  0  0  0  0  0
   37.7767   36.0281   56.9436 C   0  0  0  0  0  0  0  0  0  0  0  0
  1  2  2  0
  2  3  1  0
  3  4  1  6
  4  5  1  0
  6  5  1  1
  3  7  1  0
  7  8  1  0
  2  9  1  0
  8 10  1  0
  9 10  1  0
  6 11  1  0
 11  7  1  6
  6 12  1  0
 12 13  1  6
 12 14  1  0
 13 15  1  0
 15 16  1  0
 14 17  1  0
 14 18  1  1
 16 18  1  0
 17 19  1  0
 19 20  1  0
 11 21  1  0
 17 21  1  0
 20 22  1  0
 21 22  1  1
M  END
$$$$
51
     RDKit          3D

 22 26  0  0  0  0  0  0  0  0999 V2000
   35.6310   31.7763   54.9744 C   0  0  0  0  0  0  0  0  0  0  0  0
   36.2654   32.7755   55.3225 C   0  0  0  0  0  0  0  0  0  0  0  0
   35.5410   31.3666   53.6325 C   0  0  1  0  0  0  0  0  0  0  0  0
   36.3462   31.9929   52.7154 C   0  0  0  0  0  0  0  0  0  0  0  0
   37.0447   33.3618   54.4565 C   0  0  0  0  0  0  0  0  0  0  0  0
   37.1943   33.0509   53.2990 C   0  0  2  0  0  0  0  0  0  0  0  0
   38.1246   33.7628   52.3270 C   0  0  2  0  0  0  0  0  0  0  0  0
   34.7520   30.2949   53.1945 C   0  0  0  0  0  0  0  0  0  0  0  0
   37.8956   34.5611   54.8861 C   0  0  2  0  0  0  0  0  0  0  0  0
   37.8023   35.0763   56.1834 O   0  0  0  0  0  0  0  0  0  0  0  0
   38.1897   36.3576   56.3400 C   0  0  1  0  0  0  0  0  0  0  0  0
   38.3582   33.2888   50.9672 N   0  0  0  0  0  0  0  0  0  0  0  0
   38.1210   36.8787   57.5955 C   0  0  0  0  0  0  0  0  0  0  0  0
   39.3548   34.1037   50.4918 C   0  0  0  0  0  0  0  0  0  0  0  0
   38.6617   35.2558   54.0433 C   0  0  0  0  0  0  0  0  0  0  0  0
   39.2705   36.4900   54.5676 C   0  0  0  0  0  0  0  0  0  0  0  0
   39.1117   36.9565   55.6166 C   0  0  1  0  0  0  0  0  0  0  0  0
   38.8866   34.8296   52.6880 C   0  0  2  0  0  0  0  0  0  0  0  0
   39.6977   35.2457   51.3348 C   0  0  0  0  0  0  0  0  0  0  0  0
   38.3956   38.0932   57.9957 C   0  0  0  0  0  0  0  0  0  0  0  0
   39.6146   38.3470   55.9758 C   0  0  0  0  0  0  0  0  0  0  0  0
   39.2247   38.8555   57.1413 C   0  0  0  0  0  0  0  0  0  0  0  0
  1  2  1  0
  1  3  1  0
  3  4  1  0
  2  5  1  0
  6  4  1  6
  5  6  1  0
  6  7  1  0
  3  8  1  1
  5  9  1  0
  9 10  1  6
 10 11  1  0
  7 12  1  1
 11 13  1  1
 12 14  1  0
  9 15  1  0
 15 16  1  0
 11 17  1  0
 17 16  1  6
  7 18  1  0
 15 18  1  0
 14 19  1  0
 18 19  1  6
 13 20  1  0
 17 21  1  0
 20 22  1  0
 21 22  1  0
M  END
$$$$
52
     RDKit          3D

 22 25  0  0  0  0  0  0  0  0999 V2000
   35.6310   31.7763   54.9744 C   0  0  0  0  0  0  0  0  0  0  0  0
   36.2654   32.7755   55.3225 C   0  0  0  0  0  0  0  0  0  0  0  0
   35.5410   31.3666   53.6325 C   0  0  1  0  0  0  0  0  0  0  0  0
   36.3462   31.9929   52.7154 C   0  0  0  0  0  0  0  0  0  0  0  0
   34.6733   30.1126   53.1437 C   0  0  0  0  0  0  0  0  0  0  0  0
   37.2139   33.0537   53.1453 C   0  0  0  0  0  0  0  0  0  0  0  0
   37.1349   33.4703   54.4482 C   0  0  1  0  0  0  0  0  0  0  0  0
   38.2135   33.7757   52.1743 C   0  0  0  0  0  0  0  0  0  0  0  0
   37.9335   34.6378   54.6638 C   0  0  1  0  0  0  0  0  0  0  0  0
   36.1312   33.2464   56.7201 C   0  0  0  0  0  0  0  0  0  0  0  0
   38.3718   33.2868   50.8437 N   0  0  0  0  0  0  0  0  0  0  0  0
   37.9478   35.2476   56.0252 C   0  0  0  0  0  0  0  0  0  0  0  0
   38.9019   34.8230   52.6114 C   0  0  1  0  0  0  0  0  0  0  0  0
   39.3381   33.8771   50.2955 C   0  0  0  0  0  0  0  0  0  0  0  0
   38.7923   35.2352   53.7855 C   0  0  0  0  0  0  0  0  0  0  0  0
   36.9650   34.5680   57.0115 C   0  0  2  0  0  0  0  0  0  0  0  0
   39.7574   34.9852   51.2788 N   0  0  0  0  0  0  0  0  0  0  0  0
   36.8666   35.1034   58.3499 C   0  0  1  0  0  0  0  0  0  0  0  0
   40.6644   36.0061   51.1581 N   0  0  0  0  0  0  0  0  0  0  0  0
   37.3370   36.3794   58.6561 C   0  0  0  0  0  0  0  0  0  0  0  0
   40.3700   37.1458   51.9145 C   0  0  0  0  0  0  0  0  0  0  0  0
   35.4823   34.8766   58.8181 N   0  0  0  0  0  0  0  0  0  0  0  0
  1  2  1  0
  1  3  1  0
  3  4  1  0
  3  5  1  1
  4  6  1  0
  7  2  1  6
  6  7  1  0
  6  8  1  0
  7  9  1  0
  2 10  1  0
  8 11  1  0
  9 12  1  1
  8 13  1  0
 11 14  1  0
  9 15  1  0
 13 15  1  1
 16 10  1  1
 12 16  1  0
 13 17  1  0
 14 17  1  0
 16 18  1  0
 17 19  1  0
 18 20  1  6
 19 21  1  0
 18 22  1  0
M  END
$$$$
53
     RDKit          3D

 22 25  0  0  0  0  0  0  0  0999 V2000
   37.7268   32.8355   52.0418 C   0  0  0  0  0  0  0  0  0  0  0  0
   38.5120   33.7450   51.4079 C   0  0  0  0  0  0  0  0  0  0  0  0
   37.2997   33.0342   53.3131 C   0  0  0  0  0  0  0  0  0  0  0  0
   39.0766   34.8521   52.1137 C   0  0  0  0  0  0  0  0  0  0  0  0
   37.7728   34.1889   54.0332 C   0  0  0  0  0  0  0  0  0  0  0  0
   38.6038   34.8978   53.5746 C   0  0  2  0  0  0  0  0  0  0  0  0
   39.2477   36.1794   54.2961 C   0  0  2  0  0  0  0  0  0  0  0  0
   36.2523   32.0074   54.0356 C   0  0  0  0  0  0  0  0  0  0  0  0
   40.0207   35.8654   51.7063 C   0  0  0  0  0  0  0  0  0  0  0  0
   40.3353   35.9154   50.4332 O   0  0  0  0  0  0  0  0  0  0  0  0
   38.9528   36.3696   55.6447 C   0  0  0  0  0  0  0  0  0  0  0  0
   39.7630   37.2708   53.5630 C   0  0  1  0  0  0  0  0  0  0  0  0
   36.1952   32.0216   55.3686 C   0  0  0  0  0  0  0  0  0  0  0  0
   35.6330   31.1091   53.2158 C   0  0  0  0  0  0  0  0  0  0  0  0
   40.1582   38.4104   54.3578 C   0  0  0  0  0  0  0  0  0  0  0  0
   39.8022   38.4819   55.5219 C   0  0  2  0  0  0  0  0  0  0  0  0
   34.7237   30.2345   53.8762 C   0  0  0  0  0  0  0  0  0  0  0  0
   40.3070   39.7365   56.2362 O   0  0  0  0  0  0  0  0  0  0  0  0
   34.6156   30.3558   55.2344 N   0  0  0  0  0  0  0  0  0  0  0  0
   39.3365   37.4902   56.3297 C   0  0  0  0  0  0  0  0  0  0  0  0
   35.3644   31.2122   55.9630 C   0  0  0  0  0  0  0  0  0  0  0  0
   40.2078   37.1249   52.2649 N   0  0  0  0  0  0  0  0  0  0  0  0
  1  2  1  0
  1  3  1  0
  2  4  1  0
  3  5  1  0
  4  6  1  0
  6  5  1  6
  6  7  1  0
  3  8  1  0
  4  9  1  0
  9 10  2  0
  7 11  1  1
  7 12  1  0
  8 13  1  0
  8 14  1  0
 12 15  1  1
 15 16  1  0
 14 17  1  0
 16 18  1  1
 17 19  1  0
 11 20  1  0
 16 20  1  0
 13 21  1  0
 19 21  1  0
  9 22  1  0
 12 22  1  0
M  END
$$$$
54
     RDKit          3D

 22 25  0  0  0  0  0  0  0  0999 V2000
   35.0329   30.9210   53.0522 O   0  0  0  0  0  0  0  0  0  0  0  0
   35.9482   31.6807   53.4067 C   0  0  0  0  0  0  0  0  0  0  0  0
   36.9207   32.0950   52.5101 C   0  0  0  0  0  0  0  0  0  0  0  0
   35.8187   32.4898   54.6177 N   0  0  0  0  0  0  0  0  0  0  0  0
   37.8452   33.1267   52.8266 C   0  0  1  0  0  0  0  0  0  0  0  0
   34.9028   32.1932   55.5570 O   0  0  0  0  0  0  0  0  0  0  0  0
   36.7683   33.5064   54.9204 C   0  0  0  0  0  0  0  0  0  0  0  0
   38.8569   33.5644   51.8471 C   0  0  0  0  0  0  0  0  0  0  0  0
   37.7359   33.8710   53.9920 C   0  0  2  0  0  0  0  0  0  0  0  0
   36.5894   34.0579   56.2360 C   0  0  1  0  0  0  0  0  0  0  0  0
   38.5703   35.0365   54.2057 C   0  0  0  0  0  0  0  0  0  0  0  0
   38.4889   35.8134   55.4069 C   0  0  1  0  0  0  0  0  0  0  0  0
   37.4645   35.2754   56.3913 C   0  0  0  0  0  0  0  0  0  0  0  0
   37.3415   36.1245   57.8152 C   0  0  0  0  0  0  0  0  0  0  0  0
   39.3108   36.8830   55.6741 C   0  0  0  0  0  0  0  0  0  0  0  0
   35.6402   33.9184   57.1926 O   0  0  0  0  0  0  0  0  0  0  0  0
   39.5357   35.5368   53.3387 C   0  0  0  0  0  0  0  0  0  0  0  0
   39.5888   34.7290   52.0709 C   0  0  1  0  0  0  0  0  0  0  0  0
   38.2652   37.1653   57.9293 C   0  0  0  0  0  0  0  0  0  0  0  0
   39.1214   37.5272   56.8755 C   0  0  0  0  0  0  0  0  0  0  0  0
   40.5234   35.1533   51.0484 O   0  0  0  0  0  0  0  0  0  0  0  0
   40.4854   36.5410   50.7739 N   0  0  0  0  0  0  0  0  0  0  0  0
  1  2  2  0
  2  3  1  0
  2  4  1  0
  5  3  1  6
  4  6  1  0
  4  7  1  0
  5  8  1  0
  5  9  1  0
  9  7  1  6
  7 10  1  0
  9 11  1  0
 11 12  1  0
 10 13  1  0
 12 13  1  0
 13 14  1  0
 12 15  1  1
 10 16  1  6
 11 17  1  0
  8 18  1  0
 17 18  1  0
 14 19  1  0
 15 20  1  0
 19 20  1  0
 18 21  1  1
 21 22  1  0
M  END
$$$$
55
     RDKit          3D

 22 25  0  0  0  0  0  0  0  0999 V2000
   40.5234   35.9614   51.1397 N   0  0  0  0  0  0  0  0  0  0  0  0
   39.6713   35.0294   51.4226 C   0  0  2  0  0  0  0  0  0  0  0  0
   39.1255   34.8170   52.3649 N   0  0  0  0  0  0  0  0  0  0  0  0
   39.7477   33.9833   50.3577 N   0  0  0  0  0  0  0  0  0  0  0  0
   39.1439   35.7832   53.4371 C   0  0  2  0  0  0  0  0  0  0  0  0
   40.4793   37.0412   52.1101 C   0  0  0  0  0  0  0  0  0  0  0  0
   38.3969   35.6115   54.6611 N   0  0  0  0  0  0  0  0  0  0  0  0
   39.8199   36.9629   53.3058 C   0  0  1  0  0  0  0  0  0  0  0  0
   39.7458   37.9871   54.3195 C   0  0  0  0  0  0  0  0  0  0  0  0
   39.0164   37.7877   55.4413 C   0  0  0  0  0  0  0  0  0  0  0  0
   38.3722   36.5449   55.6410 C   0  0  1  0  0  0  0  0  0  0  0  0
   37.5524   36.2837   56.7679 N   0  0  0  0  0  0  0  0  0  0  0  0
   37.3862   37.1273   57.7699 C   0  0  0  0  0  0  0  0  0  0  0  0
   36.2101   35.5438   56.3841 C   0  0  1  0  0  0  0  0  0  0  0  0
   36.6968   36.6868   58.8664 C   0  0  0  0  0  0  0  0  0  0  0  0
   35.3827   36.0365   58.4798 N   0  0  0  0  0  0  0  0  0  0  0  0
   36.4219   34.5601   55.5640 O   0  0  0  0  0  0  0  0  0  0  0  0
   36.6956   33.4065   56.0991 C   0  0  2  0  0  0  0  0  0  0  0  0
   35.6135   35.0848   57.6522 C   0  0  2  0  0  0  0  0  0  0  0  0
   36.1829   32.2671   55.1628 C   0  0  0  0  0  0  0  0  0  0  0  0
   35.9040   33.5105   57.4343 C   0  0  0  0  0  0  0  0  0  0  0  0
   35.7313   32.4841   54.0119 O   0  0  0  0  0  0  0  0  0  0  0  0
  1  2  1  0
  2  3  1  0
  2  4  1  1
  5  3  1  6
  1  6  1  0
  5  7  1  0
  5  8  1  0
  8  6  1  6
  8  9  1  0
  9 10  1  0
  7 11  1  0
 10 11  1  0
 11 12  1  6
 12 13  1  0
 12 14  1  0
 13 15  1  0
 15 16  1  0
 14 17  1  6
 17 18  1  0
 14 19  1  0
 16 19  1  0
 18 20  1  6
 18 21  1  0
 19 21  1  1
 20 22  2  0
M  END
$$$$
56
     RDKit          3D

 22 25  0  0  0  0  0  0  0  0999 V2000
   37.7268   32.8355   52.0418 C   0  0  0  0  0  0  0  0  0  0  0  0
   38.5120   33.7450   51.4079 C   0  0  0  0  0  0  0  0  0  0  0  0
   37.2997   33.0342   53.3131 C   0  0  0  0  0  0  0  0  0  0  0  0
   39.0766   34.8521   52.1137 C   0  0  1  0  0  0  0  0  0  0  0  0
   37.7728   34.1889   54.0332 C   0  0  2  0  0  0  0  0  0  0  0  0
   38.6038   34.8978   53.5746 C   0  0  2  0  0  0  0  0  0  0  0  0
   39.2948   36.1271   54.1259 C   0  0  0  0  0  0  0  0  0  0  0  0
   36.3348   32.1535   53.9853 C   0  0  0  0  0  0  0  0  0  0  0  0
   36.9921   34.0275   55.3269 N   0  0  0  0  0  0  0  0  0  0  0  0
   39.9850   35.8375   51.8236 N   0  0  0  0  0  0  0  0  0  0  0  0
   36.2044   32.8841   55.2211 C   0  0  0  0  0  0  0  0  0  0  0  0
   40.0676   36.6623   52.9660 C   0  0  0  0  0  0  0  0  0  0  0  0
   37.0017   34.7249   56.4948 C   0  0  1  0  0  0  0  0  0  0  0  0
   37.7877   35.8590   56.5902 O   0  0  0  0  0  0  0  0  0  0  0  0
   37.5978   36.6454   57.7134 C   0  0  2  0  0  0  0  0  0  0  0  0
   35.3567   32.4783   56.2915 O   0  0  0  0  0  0  0  0  0  0  0  0
   36.7971   36.0361   58.6397 C   0  0  2  0  0  0  0  0  0  0  0  0
   36.2238   34.8022   57.8992 C   0  0  0  0  0  0  0  0  0  0  0  0
   36.0928   36.4435   59.7790 O   0  0  0  0  0  0  0  0  0  0  0  0
   40.5547   36.1226   50.6278 O   0  0  0  0  0  0  0  0  0  0  0  0
   37.3329   37.9399   56.8582 C   0  0  0  0  0  0  0  0  0  0  0  0
   38.2598   38.5543   56.2545 O   0  0  0  0  0  0  0  0  0  0  0  0
  1  2  1  0
  1  3  1  0
  4  2  1  1
  3  5  1  0
  4  6  1  0
  5  6  1  0
  6  7  1  6
  3  8  1  0
  5  9  1  1
  4 10  1  0
  8 11  1  0
  9 11  1  0
  7 12  1  0
 10 12  1  0
 13  9  1  6
 13 14  1  0
 14 15  1  0
 11 16  2  0
 15 17  1  0
 13 18  1  0
 17 18  1  0
 17 19  1  6
 10 20  1  0
 15 21  1  6
 21 22  1  0
M  END
$$$$
57
     RDKit          3D

 22 25  0  0  0  0  0  0  0  0999 V2000
   35.8381   32.9146   56.5310 N   0  0  0  0  0  0  0  0  0  0  0  0
   36.1026   32.7255   55.3209 C   0  0  1  0  0  0  0  0  0  0  0  0
   35.5790   31.5963   54.6914 N   0  0  0  0  0  0  0  0  0  0  0  0
   36.6718   33.6007   54.4407 N   0  0  0  0  0  0  0  0  0  0  0  0
   36.2893   34.1352   57.1090 C   0  0  0  0  0  0  0  0  0  0  0  0
   37.0484   33.2640   53.1764 C   0  0  0  0  0  0  0  0  0  0  0  0
   36.9233   35.0551   56.3830 C   0  0  0  0  0  0  0  0  0  0  0  0
   37.1433   34.8722   55.1197 C   0  0  1  0  0  0  0  0  0  0  0  0
   37.9045   35.5646   54.1703 N   0  0  0  0  0  0  0  0  0  0  0  0
   38.2599   35.0293   53.0030 C   0  0  2  0  0  0  0  0  0  0  0  0
   39.1937   35.9595   52.1939 N   0  0  0  0  0  0  0  0  0  0  0  0
   36.5976   31.9717   52.7522 N   0  0  0  0  0  0  0  0  0  0  0  0
   35.6193   31.3566   53.4235 C   0  0  1  0  0  0  0  0  0  0  0  0
   34.9718   30.2394   52.9213 N   0  0  0  0  0  0  0  0  0  0  0  0
   39.6187   37.1885   52.7145 C   0  0  0  0  0  0  0  0  0  0  0  0
   39.9939   35.6571   51.0742 C   0  0  0  0  0  0  0  0  0  0  0  0
   37.7729   33.9896   52.3868 C   0  0  0  0  0  0  0  0  0  0  0  0
   39.2676   37.8721   53.9802 C   0  0  0  0  0  0  0  0  0  0  0  0
   40.7118   36.7934   50.9010 N   0  0  0  0  0  0  0  0  0  0  0  0
   36.0349   34.4005   58.5591 N   0  0  0  0  0  0  0  0  0  0  0  0
   39.8889   34.5844   50.6944 N   0  0  0  0  0  0  0  0  0  0  0  0
   40.4865   37.7044   51.8928 N   0  0  0  0  0  0  0  0  0  0  0  0
  2  1  1  6
  2  3  1  0
  2  4  1  0
  1  5  1  0
  4  6  1  0
  5  7  1  0
  4  8  1  0
  8  7  1  1
  8  9  1  0
  9 10  1  0
 10 11  1  6
  6 12  1  0
  3 13  1  0
 12 13  1  0
 13 14  1  1
 11 15  1  0
 11 16  1  0
  6 17  1  0
 10 17  1  0
 15 18  1  0
 16 19  1  0
  5 20  1  0
 16 21  2  0
 15 22  1  0
 19 22  1  0
M  END
$$$$
58
     RDKit          3D

 22 24  0  0  0  0  0  0  0  0999 V2000
   39.5048   35.0938   50.8770 C   0  0  0  0  0  0  0  0  0  0  0  0
   39.8244   36.1500   51.7166 C   0  0  1  0  0  0  0  0  0  0  0  0
   40.4425   37.3096   51.3666 N   0  0  0  0  0  0  0  0  0  0  0  0
   39.2062   35.7816   53.0471 C   0  0  1  0  0  0  0  0  0  0  0  0
   40.3965   38.2693   52.3101 C   0  0  0  0  0  0  0  0  0  0  0  0
   38.9662   33.9388   51.4026 C   0  0  0  0  0  0  0  0  0  0  0  0
   39.9134   38.0926   53.6707 C   0  0  0  0  0  0  0  0  0  0  0  0
   38.7527   34.6977   53.2930 N   0  0  0  0  0  0  0  0  0  0  0  0
   39.3585   36.8802   54.0544 C   0  0  1  0  0  0  0  0  0  0  0  0
   38.8565   36.6702   55.4210 C   0  0  0  0  0  0  0  0  0  0  0  0
   38.5842   33.8043   52.4092 C   0  0  2  0  0  0  0  0  0  0  0  0
   37.9107   32.4064   52.9015 C   0  0  0  0  0  0  0  0  0  0  0  0
   36.6155   32.3325   52.6406 C   0  0  0  0  0  0  0  0  0  0  0  0
   35.9338   31.1929   53.4761 C   0  0  1  0  0  0  0  0  0  0  0  0
   35.7208   31.6755   54.8531 C   0  0  0  0  0  0  0  0  0  0  0  0
   35.5400   33.0214   55.0810 O   0  0  0  0  0  0  0  0  0  0  0  0
   36.4537   33.7908   55.9866 C   0  0  1  0  0  0  0  0  0  0  0  0
   35.2116   30.1478   53.1076 C   0  0  0  0  0  0  0  0  0  0  0  0
   37.0176   34.8518   55.6190 C   0  0  0  0  0  0  0  0  0  0  0  0
   38.3121   35.4044   55.7330 C   0  0  0  0  0  0  0  0  0  0  0  0
   35.7967   33.8976   57.2058 O   0  0  0  0  0  0  0  0  0  0  0  0
   35.8782   33.2441   58.3027 C   0  0  0  0  0  0  0  0  0  0  0  0
  2  1  1  6
  2  3  1  0
  2  4  1  0
  3  5  1  0
  1  6  1  0
  5  7  1  0
  4  8  1  1
  4  9  1  0
  9  7  1  6
  9 10  1  0
 11  6  1  1
  8 11  1  0
 11 12  1  0
 12 13  1  0
 13 14  1  0
 14 15  1  0
 15 16  1  0
 16 17  1  0
 14 18  1  6
 17 19  1  0
 10 20  1  0
 19 20  2  3
 17 21  1  1
 21 22  1  0
M  END
$$$$
59
     RDKit          3D

 22 25  0  0  0  0  0  0  0  0999 V2000
   35.0329   30.9210   53.0522 O   0  0  0  0  0  0  0  0  0  0  0  0
   35.9482   31.6807   53.4067 C   0  0  0  0  0  0  0  0  0  0  0  0
   36.9207   32.0950   52.5101 C   0  0  0  0  0  0  0  0  0  0  0  0
   35.8187   32.4898   54.6177 N   0  0  0  0  0  0  0  0  0  0  0  0
   37.8452   33.1267   52.8266 C   0  0  1  0  0  0  0  0  0  0  0  0
   34.9028   32.1932   55.5570 O   0  0  0  0  0  0  0  0  0  0  0  0
   36.7683   33.5064   54.9204 C   0  0  0  0  0  0  0  0  0  0  0  0
   38.8569   33.5644   51.8471 C   0  0  1  0  0  0  0  0  0  0  0  0
   37.7359   33.8710   53.9920 C   0  0  2  0  0  0  0  0  0  0  0  0
   36.5894   34.0579   56.2360 C   0  0  0  0  0  0  0  0  0  0  0  0
   38.5703   35.0365   54.2057 C   0  0  0  0  0  0  0  0  0  0  0  0
   38.4889   35.8134   55.4069 C   0  0  2  0  0  0  0  0  0  0  0  0
   37.4645   35.2754   56.3913 C   0  0  0  0  0  0  0  0  0  0  0  0
   37.3415   36.1245   57.8152 C   0  0  2  0  0  0  0  0  0  0  0  0
   39.0953   32.9542   50.7044 O   0  0  0  0  0  0  0  0  0  0  0  0
   39.5488   34.8147   52.0432 C   0  0  1  0  0  0  0  0  0  0  0  0
   39.5146   35.5778   53.3176 C   0  0  0  0  0  0  0  0  0  0  0  0
   39.0616   37.0228   55.9535 C   0  0  0  0  0  0  0  0  0  0  0  0
   38.2911   37.1776   57.6537 C   0  0  0  0  0  0  0  0  0  0  0  0
   36.7843   35.9273   58.7676 O   0  0  0  0  0  0  0  0  0  0  0  0
   35.2294   35.8857   58.7532 C   0  0  0  0  0  0  0  0  0  0  0  0
   40.5609   35.3151   50.9121 C   0  0  0  0  0  0  0  0  0  0  0  0
  1  2  2  0
  2  3  1  0
  2  4  1  0
  5  3  1  6
  4  6  1  0
  4  7  1  0
  5  8  1  0
  5  9  1  0
  9  7  1  6
  7 10  1  0
  9 11  1  0
 11 12  1  0
 10 13  1  0
 12 13  1  0
 13 14  1  0
  8 15  1  6
  8 16  1  0
 11 17  1  0
 16 17  1  0
 12 18  1  6
 14 19  1  0
 18 19  1  0
 14 20  1  1
 20 21  1  0
 16 22  1  1
M  END
$$$$
6
     RDKit          3D

 17 19  0  0  0  0  0  0  0  0999 V2000
   39.5048   35.0938   50.8770 C   0  0  0  0  0  0  0  0  0  0  0  0
   39.8244   36.1500   51.7166 C   0  0  1  0  0  0  0  0  0  0  0  0
   40.4425   37.3096   51.3666 N   0  0  0  0  0  0  0  0  0  0  0  0
   39.2062   35.7816   53.0471 C   0  0  0  0  0  0  0  0  0  0  0  0
   38.9236   33.9348   51.2897 N   0  0  0  0  0  0  0  0  0  0  0  0
   40.5756   38.2782   52.4139 C   0  0  0  0  0  0  0  0  0  0  0  0
   41.1824   39.3704   52.1492 N   0  0  0  0  0  0  0  0  0  0  0  0
   40.0364   37.9949   53.7332 C   0  0  0  0  0  0  0  0  0  0  0  0
   38.5892   34.1212   52.6227 C   0  0  0  0  0  0  0  0  0  0  0  0
   37.9448   33.4156   53.5300 C   0  0  0  0  0  0  0  0  0  0  0  0
   39.4008   36.9067   53.9335 C   0  0  0  0  0  0  0  0  0  0  0  0
   36.8794   32.6374   53.0980 C   0  0  0  0  0  0  0  0  0  0  0  0
   38.2662   33.4673   54.9343 C   0  0  0  0  0  0  0  0  0  0  0  0
   36.0619   31.9108   54.2014 C   0  0  0  0  0  0  0  0  0  0  0  0
   37.4664   32.8025   55.8700 C   0  0  0  0  0  0  0  0  0  0  0  0
   36.4034   32.0604   55.4887 C   0  0  0  0  0  0  0  0  0  0  0  0
   34.7827   30.9306   53.6348 Cl  0  0  0  0  0  0  0  0  0  0  0  0
  2  1  1  6
  2  3  1  0
  2  4  1  0
  1  5  1  0
  3  6  1  0
  6  7  1  0
  6  8  1  0
  4  9  1  0
  5  9  1  0
  9 10  1  0
  4 11  1  0
  8 11  1  0
 10 12  1  0
 10 13  1  0
 12 14  1  0
 13 15  1  0
 14 16  1  0
 15 16  1  0
 14 17  1  0
M  END
$$$$
60
     RDKit          3D

 22 24  0  0  0  0  0  0  0  0999 V2000
   35.6310   31.7763   54.9744 C   0  0  0  0  0  0  0  0  0  0  0  0
   36.2654   32.7755   55.3225 N   0  0  0  0  0  0  0  0  0  0  0  0
   36.2588   33.2455   56.6693 C   0  0  0  0  0  0  0  0  0  0  0  0
   37.4328   33.1003   54.5738 C   0  0  0  0  0  0  0  0  0  0  0  0
   36.8295   34.4977   56.8321 N   0  0  0  0  0  0  0  0  0  0  0  0
   34.6545   31.2844   55.3986 O   0  0  0  0  0  0  0  0  0  0  0  0
   37.7426   35.0732   55.9814 C   0  0  0  0  0  0  0  0  0  0  0  0
   37.9756   34.3875   54.7752 C   0  0  1  0  0  0  0  0  0  0  0  0
   38.3816   36.3079   56.4111 C   0  0  2  0  0  0  0  0  0  0  0  0
   36.0696   30.8932   53.8969 C   0  0  0  0  0  0  0  0  0  0  0  0
   38.9451   35.1287   54.0159 C   0  0  1  0  0  0  0  0  0  0  0  0
   39.2967   34.6752   52.6128 C   0  0  0  0  0  0  0  0  0  0  0  0
   38.8069   33.4941   52.0478 C   0  0  0  0  0  0  0  0  0  0  0  0
   40.3023   35.5626   51.7438 C   0  0  2  0  0  0  0  0  0  0  0  0
   40.6679   36.7739   52.2051 C   0  0  0  0  0  0  0  0  0  0  0  0
   40.0049   35.3491   50.4125 O   0  0  0  0  0  0  0  0  0  0  0  0
   35.4568   32.7981   57.5221 O   0  0  0  0  0  0  0  0  0  0  0  0
   39.9353   37.5442   53.2081 C   0  0  0  0  0  0  0  0  0  0  0  0
   38.0447   36.9237   57.5902 C   0  0  0  0  0  0  0  0  0  0  0  0
   38.2396   37.4494   55.3006 C   0  0  0  0  0  0  0  0  0  0  0  0
   34.9649   30.3553   53.0417 C   0  0  0  0  0  0  0  0  0  0  0  0
   39.2211   36.8409   54.1546 C   0  0  1  0  0  0  0  0  0  0  0  0
  1  2  1  0
  2  3  1  0
  2  4  1  0
  3  5  1  0
  1  6  2  0
  5  7  1  0
  8  4  1  1
  7  8  1  0
  7  9  1  0
  1 10  1  0
  8 11  1  0
 11 12  1  6
 12 13  1  0
 12 14  1  0
 14 15  1  0
 14 16  1  6
  3 17  2  0
 15 18  1  0
  9 19  1  1
  9 20  1  0
 10 21  1  0
 11 22  1  0
 22 18  1  6
 20 22  1  0
M  END
$$$$
61
     RDKit          3D

 22 24  0  0  0  0  0  0  0  0999 V2000
   39.5048   35.0938   50.8770 C   0  0  0  0  0  0  0  0  0  0  0  0
   38.8782   34.1132   51.4924 C   0  0  0  0  0  0  0  0  0  0  0  0
   38.4612   34.3153   52.8278 C   0  0  0  0  0  0  0  0  0  0  0  0
   39.9522   36.2363   51.5889 C   0  0  0  0  0  0  0  0  0  0  0  0
   39.4986   36.3814   52.9018 C   0  0  0  0  0  0  0  0  0  0  0  0
   38.7681   35.4463   53.5196 C   0  0  1  0  0  0  0  0  0  0  0  0
   37.6919   33.2379   53.5117 C   0  0  1  0  0  0  0  0  0  0  0  0
   38.0725   32.8935   54.8339 O   0  0  0  0  0  0  0  0  0  0  0  0
   39.9415   37.8171   53.7511 C   0  0  0  0  0  0  0  0  0  0  0  0
   36.6169   32.6032   53.1028 O   0  0  0  0  0  0  0  0  0  0  0  0
   36.9950   32.7069   55.6921 C   0  0  0  0  0  0  0  0  0  0  0  0
   35.8669   32.1183   55.0532 C   0  0  0  0  0  0  0  0  0  0  0  0
   35.7900   31.9808   53.7813 C   0  0  0  0  0  0  0  0  0  0  0  0
   34.6460   31.3856   53.2079 O   0  0  0  0  0  0  0  0  0  0  0  0
   40.5586   38.6860   52.9636 O   0  0  0  0  0  0  0  0  0  0  0  0
   39.3521   38.1380   54.7463 N   0  0  0  0  0  0  0  0  0  0  0  0
   38.6132   37.1576   55.5490 C   0  0  1  0  0  0  0  0  0  0  0  0
   38.4125   36.0291   54.9095 C   0  0  0  0  0  0  0  0  0  0  0  0
   38.3770   37.4147   56.9649 C   0  0  0  0  0  0  0  0  0  0  0  0
   38.3079   38.6833   57.2970 O   0  0  0  0  0  0  0  0  0  0  0  0
   37.9455   36.4864   57.7411 N   0  0  0  0  0  0  0  0  0  0  0  0
   37.7244   36.6733   59.0813 C   0  0  0  0  0  0  0  0  0  0  0  0
  1  2  1  0
  2  3  1  0
  1  4  1  0
  4  5  1  0
  3  6  1  0
  5  6  1  0
  7  3  1  1
  7  8  1  0
  5  9  1  0
  7 10  1  0
  8 11  1  0
 11 12  1  0
 10 13  1  0
 12 13  1  0
 13 14  2  0
  9 15  2  0
  9 16  1  0
 16 17  1  0
  6 18  1  6
 17 18  1  0
 17 19  1  1
 19 20  2  0
 19 21  1  0
 21 22  1  0
M  END
$$$$
62
     RDKit          3D

 22 25  0  0  0  0  0  0  0  0999 V2000
   35.6310   31.7763   54.9744 C   0  0  0  0  0  0  0  0  0  0  0  0
   36.2654   32.7755   55.3225 C   0  0  0  0  0  0  0  0  0  0  0  0
   35.5410   31.3666   53.6325 C   0  0  1  0  0  0  0  0  0  0  0  0
   36.3462   31.9929   52.7154 C   0  0  0  0  0  0  0  0  0  0  0  0
   37.0447   33.3618   54.4565 C   0  0  0  0  0  0  0  0  0  0  0  0
   37.1943   33.0509   53.2990 C   0  0  2  0  0  0  0  0  0  0  0  0
   38.1246   33.7628   52.3270 C   0  0  2  0  0  0  0  0  0  0  0  0
   34.7520   30.2949   53.1945 C   0  0  0  0  0  0  0  0  0  0  0  0
   37.8956   34.5611   54.8861 C   0  0  2  0  0  0  0  0  0  0  0  0
   37.8023   35.0763   56.1834 O   0  0  0  0  0  0  0  0  0  0  0  0
   38.1897   36.3576   56.3400 C   0  0  1  0  0  0  0  0  0  0  0  0
   39.0071   36.8337   55.3408 C   0  0  0  0  0  0  0  0  0  0  0  0
   38.4037   33.3297   51.0061 N   0  0  0  0  0  0  0  0  0  0  0  0
   39.3631   34.1557   50.5425 N   0  0  0  0  0  0  0  0  0  0  0  0
   38.6749   35.1992   53.9423 C   0  0  1  0  0  0  0  0  0  0  0  0
   38.9100   34.7822   52.5544 C   0  0  0  0  0  0  0  0  0  0  0  0
   39.2463   36.4070   54.2053 N   0  0  0  0  0  0  0  0  0  0  0  0
   39.6215   35.0606   51.4788 C   0  0  0  0  0  0  0  0  0  0  0  0
   37.1645   36.9785   56.8069 C   0  0  0  0  0  0  0  0  0  0  0  0
   40.6088   36.2177   51.2500 C   0  0  0  0  0  0  0  0  0  0  0  0
   36.5835   36.4615   57.9855 O   0  0  0  0  0  0  0  0  0  0  0  0
   35.2279   36.7002   58.4839 C   0  0  0  0  0  0  0  0  0  0  0  0
  1  2  1  0
  1  3  1  0
  3  4  1  0
  2  5  1  0
  6  4  1  6
  5  6  1  0
  6  7  1  0
  3  8  1  1
  5  9  1  0
  9 10  1  6
 10 11  1  0
 11 12  1  0
  7 13  1  1
 13 14  1  0
  9 15  1  0
  7 16  1  0
 15 16  1  0
 12 17  1  0
 15 17  1  6
 14 18  1  0
 16 18  1  0
 11 19  1  6
 18 20  1  0
 19 21  1  0
 21 22  1  0
M  END
$$$$
63
     RDKit          3D

 22 25  0  0  0  0  0  0  0  0999 V2000
   35.8381   32.9146   56.5310 N   0  0  0  0  0  0  0  0  0  0  0  0
   36.1026   32.7255   55.3209 C   0  0  1  0  0  0  0  0  0  0  0  0
   35.5790   31.5963   54.6914 N   0  0  0  0  0  0  0  0  0  0  0  0
   36.6718   33.6007   54.4407 N   0  0  0  0  0  0  0  0  0  0  0  0
   36.2893   34.1352   57.1090 C   0  0  0  0  0  0  0  0  0  0  0  0
   37.0484   33.2640   53.1764 C   0  0  2  0  0  0  0  0  0  0  0  0
   36.9233   35.0551   56.3830 C   0  0  0  0  0  0  0  0  0  0  0  0
   37.1433   34.8722   55.1197 C   0  0  1  0  0  0  0  0  0  0  0  0
   37.9045   35.5646   54.1703 N   0  0  0  0  0  0  0  0  0  0  0  0
   38.2599   35.0293   53.0030 C   0  0  2  0  0  0  0  0  0  0  0  0
   39.1937   35.9595   52.1939 N   0  0  0  0  0  0  0  0  0  0  0  0
   36.5976   31.9717   52.7522 N   0  0  0  0  0  0  0  0  0  0  0  0
   35.6193   31.3566   53.4235 C   0  0  1  0  0  0  0  0  0  0  0  0
   34.9718   30.2394   52.9213 N   0  0  0  0  0  0  0  0  0  0  0  0
   39.6187   37.1885   52.7145 C   0  0  1  0  0  0  0  0  0  0  0  0
   40.0079   35.2795   51.3536 C   0  0  0  0  0  0  0  0  0  0  0  0
   37.8470   34.0086   52.4626 C   0  0  0  0  0  0  0  0  0  0  0  0
   40.6678   37.7399   51.9197 N   0  0  0  0  0  0  0  0  0  0  0  0
   40.8968   36.4204   50.9813 N   0  0  0  0  0  0  0  0  0  0  0  0
   36.0335   34.4220   58.5251 O   0  0  0  0  0  0  0  0  0  0  0  0
   39.1599   38.0705   53.7142 C   0  0  0  0  0  0  0  0  0  0  0  0
   35.4685   33.6955   59.2962 C   0  0  0  0  0  0  0  0  0  0  0  0
  2  1  1  6
  2  3  1  0
  2  4  1  0
  1  5  1  0
  4  6  1  0
  5  7  1  0
  4  8  1  0
  8  7  1  1
  8  9  1  0
  9 10  1  0
 10 11  1  6
  6 12  1  0
  3 13  1  0
 12 13  1  0
 13 14  1  1
 11 15  1  0
 11 16  1  0
  6 17  1  1
 10 17  1  0
 15 18  1  0
 16 19  1  0
 18 19  1  0
  5 20  1  0
 15 21  1  6
 20 22  1  0
M  END
$$$$
64
     RDKit          3D

 22 26  0  0  0  0  0  0  0  0999 V2000
   39.5832   33.9896   51.6028 N   0  0  0  0  0  0  0  0  0  0  0  0
   39.9556   35.0949   52.0424 C   0  0  0  0  0  0  0  0  0  0  0  0
   38.4680   33.4516   52.1062 C   0  0  0  0  0  0  0  0  0  0  0  0
   40.9699   35.8734   51.4792 N   0  0  0  0  0  0  0  0  0  0  0  0
   37.8382   32.3321   51.7523 N   0  0  0  0  0  0  0  0  0  0  0  0
   38.0962   34.3109   53.2454 C   0  0  2  0  0  0  0  0  0  0  0  0
   39.0818   35.3470   53.1974 C   0  0  0  0  0  0  0  0  0  0  0  0
   37.1441   34.0939   54.2381 C   0  0  0  0  0  0  0  0  0  0  0  0
   37.0220   35.1218   55.2420 C   0  0  1  0  0  0  0  0  0  0  0  0
   36.3366   32.8828   54.3261 C   0  0  2  0  0  0  0  0  0  0  0  0
   36.2669   31.9395   53.4009 O   0  0  0  0  0  0  0  0  0  0  0  0
   37.0024   31.8124   52.3152 C   0  0  0  0  0  0  0  0  0  0  0  0
   39.2441   36.5350   54.1950 C   0  0  0  0  0  0  0  0  0  0  0  0
   36.1157   34.9573   56.3530 C   0  0  2  0  0  0  0  0  0  0  0  0
   37.8871   36.3694   55.3175 C   0  0  2  0  0  0  0  0  0  0  0  0
   35.4724   32.8213   55.4221 C   0  0  0  0  0  0  0  0  0  0  0  0
   38.1579   36.9152   56.4942 C   0  0  1  0  0  0  0  0  0  0  0  0
   35.9091   35.9935   57.3094 C   0  0  0  0  0  0  0  0  0  0  0  0
   35.5194   33.6776   56.5533 C   0  0  0  0  0  0  0  0  0  0  0  0
   38.7893   38.1496   56.4905 O   0  0  0  0  0  0  0  0  0  0  0  0
   38.0212   39.1633   56.1413 C   0  0  0  0  0  0  0  0  0  0  0  0
   36.8990   37.0595   57.3057 C   0  0  0  0  0  0  0  0  0  0  0  0
  1  2  1  0
  1  3  1  0
  2  4  2  0
  3  5  2  0
  3  6  1  0
  2  7  1  0
  6  7  1  1
  6  8  1  0
  9  8  1  1
  8 10  1  0
 10 11  1  0
  5 12  1  0
 11 12  1  0
  7 13  1  0
  9 14  1  0
  9 15  1  0
 15 13  1  1
 10 16  1  6
 15 17  1  0
 14 18  1  1
 14 19  1  0
 16 19  1  0
 17 20  1  6
 20 21  1  0
 17 22  1  0
 18 22  1  0
M  END
$$$$
65
     RDKit          3D

 22 26  0  0  0  0  0  0  0  0999 V2000
   38.3536   33.1601   51.7483 C   0  0  0  0  0  0  0  0  0  0  0  0
   37.3366   33.2412   52.6794 C   0  0  1  0  0  0  0  0  0  0  0  0
   39.1876   34.3246   51.6562 C   0  0  0  0  0  0  0  0  0  0  0  0
   36.6039   32.0052   52.9817 N   0  0  0  0  0  0  0  0  0  0  0  0
   39.0955   35.3046   52.7404 C   0  0  2  0  0  0  0  0  0  0  0  0
   35.8557   31.8832   54.0281 C   0  0  0  0  0  0  0  0  0  0  0  0
   37.4526   34.0501   53.8669 C   0  0  2  0  0  0  0  0  0  0  0  0
   40.2091   34.6383   50.5294 O   0  0  0  0  0  0  0  0  0  0  0  0
   40.0170   36.4520   52.5667 C   0  0  0  0  0  0  0  0  0  0  0  0
   38.3700   35.1457   53.7574 C   0  0  2  0  0  0  0  0  0  0  0  0
   36.0223   32.6200   54.9318 N   0  0  0  0  0  0  0  0  0  0  0  0
   39.9601   37.4746   53.6039 C   0  0  1  0  0  0  0  0  0  0  0  0
   35.0370   30.7882   54.0543 N   0  0  0  0  0  0  0  0  0  0  0  0
   36.9087   33.7198   54.8866 C   0  0  2  0  0  0  0  0  0  0  0  0
   36.7351   34.6896   55.9792 N   0  0  0  0  0  0  0  0  0  0  0  0
   40.7690   38.6644   53.4914 C   0  0  0  0  0  0  0  0  0  0  0  0
   38.9464   37.4795   54.5621 C   0  0  0  0  0  0  0  0  0  0  0  0
   35.9432   34.5394   57.1038 C   0  0  0  0  0  0  0  0  0  0  0  0
   38.2564   36.2067   54.7277 C   0  0  1  0  0  0  0  0  0  0  0  0
   37.2980   36.0677   55.9646 C   0  0  2  0  0  0  0  0  0  0  0  0
   36.0436   35.7785   57.8783 C   0  0  0  0  0  0  0  0  0  0  0  0
   36.9764   36.7552   57.0451 C   0  0  0  0  0  0  0  0  0  0  0  0
  2  1  1  1
  1  3  1  0
  2  4  1  0
  3  5  1  0
  4  6  1  0
  7  2  1  1
  3  8  1  0
  5  9  1  1
 10  5  1  6
  7 10  1  0
  6 11  1  0
  9 12  1  0
  6 13  2  0
  7 14  1  0
 14 11  1  6
 14 15  1  0
 12 16  1  6
 12 17  1  0
 15 18  1  0
 10 19  1  0
 19 17  1  6
 15 20  1  0
 19 20  1  0
 18 21  1  0
 20 22  1  1
 21 22  1  0
M  END
$$$$
66
     RDKit          3D

 22 25  0  0  0  0  0  0  0  0999 V2000
   35.6310   31.7763   54.9744 C   0  0  0  0  0  0  0  0  0  0  0  0
   36.2654   32.7755   55.3225 C   0  0  0  0  0  0  0  0  0  0  0  0
   35.5410   31.3666   53.6325 C   0  0  1  0  0  0  0  0  0  0  0  0
   36.3462   31.9929   52.7154 C   0  0  0  0  0  0  0  0  0  0  0  0
   37.0447   33.3618   54.4565 C   0  0  0  0  0  0  0  0  0  0  0  0
   37.1943   33.0509   53.2990 C   0  0  2  0  0  0  0  0  0  0  0  0
   38.1246   33.7628   52.3270 C   0  0  2  0  0  0  0  0  0  0  0  0
   34.7520   30.2949   53.1945 C   0  0  0  0  0  0  0  0  0  0  0  0
   37.8956   34.5611   54.8861 C   0  0  2  0  0  0  0  0  0  0  0  0
   37.8023   35.0763   56.1834 O   0  0  0  0  0  0  0  0  0  0  0  0
   38.1897   36.3576   56.3400 C   0  0  2  0  0  0  0  0  0  0  0  0
   39.0071   36.8337   55.3408 C   0  0  0  0  0  0  0  0  0  0  0  0
   38.4037   33.3297   51.0061 N   0  0  0  0  0  0  0  0  0  0  0  0
   39.3631   34.1557   50.5425 N   0  0  0  0  0  0  0  0  0  0  0  0
   38.6749   35.1992   53.9423 C   0  0  1  0  0  0  0  0  0  0  0  0
   39.5887   35.1015   51.4693 C   0  0  1  0  0  0  0  0  0  0  0  0
   38.9122   34.7644   52.4963 C   0  0  0  0  0  0  0  0  0  0  0  0
   39.3216   36.4428   54.2405 C   0  0  0  0  0  0  0  0  0  0  0  0
   40.5195   36.1328   51.2792 N   0  0  0  0  0  0  0  0  0  0  0  0
   37.9837   36.7849   57.6887 C   0  0  0  0  0  0  0  0  0  0  0  0
   37.7509   35.9858   58.6689 O   0  0  0  0  0  0  0  0  0  0  0  0
   37.7103   37.9323   58.1701 O   0  0  0  0  0  0  0  0  0  0  0  0
  1  2  1  0
  1  3  1  0
  3  4  1  0
  2  5  1  0
  6  4  1  6
  5  6  1  0
  6  7  1  0
  3  8  1  1
  5  9  1  0
  9 10  1  6
 10 11  1  0
 11 12  1  0
  7 13  1  1
 13 14  1  0
  9 15  1  0
 14 16  1  0
  7 17  1  0
 15 17  1  0
 16 17  1  0
 12 18  1  0
 15 18  1  6
 16 19  1  1
 11 20  1  1
 20 21  1  0
 20 22  2  0
M  END
$$$$
67
     RDKit          3D

 23 25  0  0  0  0  0  0  0  0999 V2000
   35.6310   31.7763   54.9744 C   0  0  0  0  0  0  0  0  0  0  0  0
   36.2654   32.7755   55.3225 N   0  0  0  0  0  0  0  0  0  0  0  0
   36.2588   33.2455   56.6693 C   0  0  0  0  0  0  0  0  0  0  0  0
   37.4328   33.1003   54.5738 C   0  0  0  0  0  0  0  0  0  0  0  0
   36.8295   34.4977   56.8321 N   0  0  0  0  0  0  0  0  0  0  0  0
   34.6545   31.2844   55.3986 O   0  0  0  0  0  0  0  0  0  0  0  0
   37.7426   35.0732   55.9814 C   0  0  0  0  0  0  0  0  0  0  0  0
   37.9756   34.3875   54.7752 C   0  0  1  0  0  0  0  0  0  0  0  0
   38.3816   36.3079   56.4111 C   0  0  2  0  0  0  0  0  0  0  0  0
   36.0696   30.8932   53.8969 C   0  0  0  0  0  0  0  0  0  0  0  0
   38.9451   35.1287   54.0159 C   0  0  1  0  0  0  0  0  0  0  0  0
   39.2967   34.6752   52.6128 C   0  0  0  0  0  0  0  0  0  0  0  0
   38.8069   33.4941   52.0478 C   0  0  0  0  0  0  0  0  0  0  0  0
   40.3023   35.5626   51.7438 C   0  0  2  0  0  0  0  0  0  0  0  0
   40.6679   36.7739   52.2051 C   0  0  0  0  0  0  0  0  0  0  0  0
   40.0049   35.3491   50.4125 O   0  0  0  0  0  0  0  0  0  0  0  0
   40.2286   37.3778   53.5072 C   0  0  2  0  0  0  0  0  0  0  0  0
   40.7626   38.5712   54.0046 C   0  0  0  0  0  0  0  0  0  0  0  0
   38.0368   36.8727   57.5869 C   0  0  0  0  0  0  0  0  0  0  0  0
   39.4758   36.4753   54.3471 C   0  0  0  0  0  0  0  0  0  0  0  0
   39.2664   37.0162   55.6115 C   0  0  0  0  0  0  0  0  0  0  0  0
   34.9578   30.4372   52.9539 C   0  0  0  0  0  0  0  0  0  0  0  0
   35.4239   32.8681   57.5380 O   0  0  0  0  0  0  0  0  0  0  0  0
  1  2  1  0
  2  3  1  0
  2  4  1  0
  3  5  1  0
  1  6  2  0
  5  7  1  0
  8  4  1  1
  7  8  1  0
  7  9  1  0
  1 10  1  0
  8 11  1  0
 11 12  1  6
 12 13  1  0
 12 14  1  0
 14 15  1  0
 14 16  1  6
 15 17  1  0
 17 18  1  1
  9 19  1  6
 11 20  1  0
 17 20  1  0
  9 21  1  0
 20 21  1  0
 10 22  1  0
  3 23  2  0
M  END
$$$$
68
     RDKit          3D

 23 26  0  0  0  0  0  0  0  0999 V2000
   37.7268   32.8355   52.0418 C   0  0  0  0  0  0  0  0  0  0  0  0
   38.5120   33.7450   51.4079 C   0  0  0  0  0  0  0  0  0  0  0  0
   37.2997   33.0342   53.3131 C   0  0  0  0  0  0  0  0  0  0  0  0
   39.0766   34.8521   52.1137 C   0  0  0  0  0  0  0  0  0  0  0  0
   37.7728   34.1889   54.0332 C   0  0  2  0  0  0  0  0  0  0  0  0
   38.6038   34.8978   53.5746 C   0  0  2  0  0  0  0  0  0  0  0  0
   39.2477   36.1794   54.2961 C   0  0  1  0  0  0  0  0  0  0  0  0
   36.2523   32.0074   54.0356 C   0  0  1  0  0  0  0  0  0  0  0  0
   37.3017   34.1860   55.5671 C   0  0  0  0  0  0  0  0  0  0  0  0
   35.9221   32.2820   55.2956 C   0  0  0  0  0  0  0  0  0  0  0  0
   35.6862   31.0296   53.1888 C   0  0  0  0  0  0  0  0  0  0  0  0
   36.3604   33.2151   55.9959 C   0  0  0  0  0  0  0  0  0  0  0  0
   39.1448   36.2868   55.6094 C   0  0  0  0  0  0  0  0  0  0  0  0
   35.8795   33.4177   57.4953 C   0  0  0  0  0  0  0  0  0  0  0  0
   39.9844   35.9143   51.7548 C   0  0  0  0  0  0  0  0  0  0  0  0
   40.3552   35.9622   50.3894 O   0  0  0  0  0  0  0  0  0  0  0  0
   40.4125   36.9541   52.5850 N   0  0  0  0  0  0  0  0  0  0  0  0
   38.0450   35.3387   56.2804 C   0  0  0  0  0  0  0  0  0  0  0  0
   40.0816   37.2021   53.7161 C   0  0  0  0  0  0  0  0  0  0  0  0
   40.4876   38.2946   54.3438 O   0  0  0  0  0  0  0  0  0  0  0  0
   36.5032   33.0709   58.3679 O   0  0  0  0  0  0  0  0  0  0  0  0
   34.6783   33.9052   57.5714 O   0  0  0  0  0  0  0  0  0  0  0  0
   40.7985   39.3975   53.5961 C   0  0  0  0  0  0  0  0  0  0  0  0
  1  2  1  0
  1  3  1  0
  2  4  1  0
  5  3  1  1
  6  4  1  6
  5  6  1  0
  6  7  1  0
  3  8  1  0
  5  9  1  0
  8 10  1  0
  8 11  1  6
  9 12  1  0
 10 12  1  0
  7 13  1  1
 12 14  1  0
  4 15  1  0
 15 16  2  0
 15 17  1  0
  9 18  1  0
 13 18  1  0
  7 19  1  0
 17 19  1  0
 19 20  1  0
 14 21  2  0
 14 22  1  0
 20 23  1  0
M  END
$$$$
69
     RDKit          3D

 23 26  0  0  0  0  0  0  0  0999 V2000
   35.6310   31.7763   54.9744 C   0  0  0  0  0  0  0  0  0  0  0  0
   36.2654   32.7755   55.3225 C   0  0  0  0  0  0  0  0  0  0  0  0
   35.5410   31.3666   53.6325 C   0  0  1  0  0  0  0  0  0  0  0  0
   36.3462   31.9929   52.7154 C   0  0  0  0  0  0  0  0  0  0  0  0
   37.0447   33.3618   54.4565 C   0  0  0  0  0  0  0  0  0  0  0  0
   37.1943   33.0509   53.2990 C   0  0  2  0  0  0  0  0  0  0  0  0
   38.1246   33.7628   52.3270 C   0  0  2  0  0  0  0  0  0  0  0  0
   34.7520   30.2949   53.1945 C   0  0  0  0  0  0  0  0  0  0  0  0
   37.8956   34.5611   54.8861 C   0  0  1  0  0  0  0  0  0  0  0  0
   37.8023   35.0763   56.1834 O   0  0  0  0  0  0  0  0  0  0  0  0
   38.1897   36.3576   56.3400 C   0  0  1  0  0  0  0  0  0  0  0  0
   38.3582   33.2888   50.9672 N   0  0  0  0  0  0  0  0  0  0  0  0
   38.1210   36.8787   57.5955 C   0  0  0  0  0  0  0  0  0  0  0  0
   38.8486   35.1971   54.0882 C   0  0  2  0  0  0  0  0  0  0  0  0
   39.3462   33.7439   50.3589 C   0  0  0  0  0  0  0  0  0  0  0  0
   38.9266   36.9440   55.3640 C   0  0  0  0  0  0  0  0  0  0  0  0
   39.1810   36.4889   54.4437 C   0  0  0  0  0  0  0  0  0  0  0  0
   38.9470   34.7193   52.7265 C   0  0  2  0  0  0  0  0  0  0  0  0
   39.7190   35.1682   51.5432 C   0  0  0  0  0  0  0  0  0  0  0  0
   37.4554   36.1216   58.6714 C   0  0  0  0  0  0  0  0  0  0  0  0
   36.1039   36.5588   59.0307 N   0  0  0  0  0  0  0  0  0  0  0  0
   35.1272   35.7680   59.5409 C   0  0  0  0  0  0  0  0  0  0  0  0
   35.5482   37.3120   57.7334 C   0  0  0  0  0  0  0  0  0  0  0  0
  1  2  1  0
  1  3  1  0
  3  4  1  0
  2  5  1  0
  6  4  1  6
  5  6  1  0
  6  7  1  0
  3  8  1  1
  5  9  1  0
  9 10  1  1
 10 11  1  0
  7 12  1  1
 11 13  1  1
  9 14  1  0
 12 15  1  0
 11 16  1  0
 14 17  1  6
 16 17  1  0
  7 18  1  0
 14 18  1  0
 15 19  1  0
 18 19  1  6
 13 20  1  0
 20 21  1  0
 21 22  1  0
 21 23  1  0
M  END
$$$$
7
     RDKit          3D

 17 19  0  0  0  0  0  0  0  0999 V2000
   34.5277   30.8715   52.8149 O   0  0  0  0  0  0  0  0  0  0  0  0
   35.3990   31.2350   53.7216 C   0  0  0  0  0  0  0  0  0  0  0  0
   36.4878   32.0515   53.4080 C   0  0  1  0  0  0  0  0  0  0  0  0
   36.9289   32.2819   52.1911 C   0  0  0  0  0  0  0  0  0  0  0  0
   38.0278   33.2175   52.1097 C   0  0  0  0  0  0  0  0  0  0  0  0
   38.3277   34.0328   53.0905 C   0  0  1  0  0  0  0  0  0  0  0  0
   36.9091   32.9661   54.5826 C   0  0  0  0  0  0  0  0  0  0  0  0
   36.3781   32.8070   55.8701 N   0  0  0  0  0  0  0  0  0  0  0  0
   34.9169   31.2636   55.1145 N   0  0  0  0  0  0  0  0  0  0  0  0
   35.4401   31.9302   56.0716 C   0  0  0  0  0  0  0  0  0  0  0  0
   37.8292   33.9146   54.3881 C   0  0  0  0  0  0  0  0  0  0  0  0
   39.4315   35.0222   52.8725 C   0  0  1  0  0  0  0  0  0  0  0  0
   40.0130   35.0656   51.6011 C   0  0  0  0  0  0  0  0  0  0  0  0
   39.1902   36.3688   53.4701 C   0  0  0  0  0  0  0  0  0  0  0  0
   40.5986   36.1687   51.1048 N   0  0  0  0  0  0  0  0  0  0  0  0
   40.6214   37.3425   51.7738 C   0  0  0  0  0  0  0  0  0  0  0  0
   40.0328   37.3948   53.0504 C   0  0  0  0  0  0  0  0  0  0  0  0
  1  2  2  0
  2  3  1  0
  3  4  1  6
  4  5  1  0
  6  5  1  1
  3  7  1  0
  7  8  1  0
  2  9  1  0
  8 10  1  0
  9 10  1  0
  6 11  1  0
  7 11  1  0
  6 12  1  0
 12 13  1  6
 12 14  1  0
 13 15  1  0
 15 16  1  0
 14 17  1  0
 16 17  1  0
M  END
$$$$
70
     RDKit          3D

 23 27  0  0  0  0  0  0  0  0999 V2000
   34.9931   30.8804   53.4429 C   0  0  0  0  0  0  0  0  0  0  0  0
   34.6769   31.1653   54.5850 N   0  0  0  0  0  0  0  0  0  0  0  0
   34.1627   30.1054   52.6809 O   0  0  0  0  0  0  0  0  0  0  0  0
   36.1715   31.3687   52.7832 C   0  0  0  0  0  0  0  0  0  0  0  0
   36.7709   32.3834   53.4813 C   0  0  0  0  0  0  0  0  0  0  0  0
   37.9068   33.0987   52.9284 C   0  0  2  0  0  0  0  0  0  0  0  0
   38.2834   32.8908   51.6578 C   0  0  0  0  0  0  0  0  0  0  0  0
   36.1955   32.7466   54.7717 C   0  0  2  0  0  0  0  0  0  0  0  0
   38.7223   33.9561   53.7324 C   0  0  2  0  0  0  0  0  0  0  0  0
   37.0360   33.8181   55.4850 C   0  0  1  0  0  0  0  0  0  0  0  0
   35.2786   32.1519   55.3453 C   0  0  0  0  0  0  0  0  0  0  0  0
   39.2012   33.7609   50.9760 C   0  0  0  0  0  0  0  0  0  0  0  0
   38.1645   34.3759   54.9200 C   0  0  0  0  0  0  0  0  0  0  0  0
   36.6129   34.2914   56.7099 N   0  0  0  0  0  0  0  0  0  0  0  0
   39.6818   34.9714   51.6757 C   0  0  2  0  0  0  0  0  0  0  0  0
   40.5847   35.8764   51.1575 N   0  0  0  0  0  0  0  0  0  0  0  0
   39.5544   34.8606   53.1869 C   0  0  1  0  0  0  0  0  0  0  0  0
   40.7809   36.9301   51.9651 C   0  0  0  0  0  0  0  0  0  0  0  0
   35.6671   33.6047   57.4946 C   0  0  2  0  0  0  0  0  0  0  0  0
   34.9748   32.5699   56.7131 N   0  0  0  0  0  0  0  0  0  0  0  0
   35.1267   34.0457   58.6142 C   0  0  0  0  0  0  0  0  0  0  0  0
   40.3891   36.9913   53.2743 C   0  0  0  0  0  0  0  0  0  0  0  0
   39.8106   36.0158   53.8745 C   0  0  0  0  0  0  0  0  0  0  0  0
  1  2  1  0
  1  3  2  0
  1  4  1  0
  4  5  1  0
  5  6  1  0
  6  7  1  1
  8  5  1  1
  6  9  1  0
  8 10  1  0
  2 11  1  0
  8 11  1  0
  7 12  1  0
  9 13  1  1
 10 13  1  6
 10 14  1  0
 15 12  1  1
 15 16  1  0
  9 17  1  0
 15 17  1  0
 16 18  1  0
 14 19  1  0
 11 20  1  0
 19 20  1  0
 19 21  1  6
 18 22  1  0
 17 23  1  6
 22 23  1  0
M  END
$$$$
71
     RDKit          3D

 23 26  0  0  0  0  0  0  0  0999 V2000
   34.9931   30.8804   53.4429 C   0  0  0  0  0  0  0  0  0  0  0  0
   36.0298   31.5796   53.0333 O   0  0  0  0  0  0  0  0  0  0  0  0
   36.5380   32.4897   53.9132 C   0  0  1  0  0  0  0  0  0  0  0  0
   37.5457   33.3877   53.5883 C   0  0  2  0  0  0  0  0  0  0  0  0
   35.7785   32.8919   55.1729 C   0  0  0  0  0  0  0  0  0  0  0  0
   36.3337   33.9197   55.9811 C   0  0  0  0  0  0  0  0  0  0  0  0
   38.3045   33.1146   52.3141 C   0  0  0  0  0  0  0  0  0  0  0  0
   39.2045   34.1336   51.8041 C   0  0  0  0  0  0  0  0  0  0  0  0
   39.8160   34.1647   50.5846 N   0  0  0  0  0  0  0  0  0  0  0  0
   39.4559   35.2963   52.6589 C   0  0  2  0  0  0  0  0  0  0  0  0
   37.4515   34.6830   55.5774 C   0  0  0  0  0  0  0  0  0  0  0  0
   38.6798   35.5535   53.7367 C   0  0  0  0  0  0  0  0  0  0  0  0
   37.9037   35.6506   56.5867 C   0  0  0  0  0  0  0  0  0  0  0  0
   37.9956   34.5160   54.3672 C   0  0  2  0  0  0  0  0  0  0  0  0
   40.1891   36.2073   51.8235 N   0  0  0  0  0  0  0  0  0  0  0  0
   35.5381   34.0397   57.3688 C   0  0  1  0  0  0  0  0  0  0  0  0
   34.5145   33.2504   57.6736 O   0  0  0  0  0  0  0  0  0  0  0  0
   37.1955   35.7522   57.8434 C   0  0  0  0  0  0  0  0  0  0  0  0
   40.4016   35.4928   50.6324 N   0  0  0  0  0  0  0  0  0  0  0  0
   36.1486   34.8287   58.3045 C   0  0  1  0  0  0  0  0  0  0  0  0
   35.4930   35.0481   59.5276 O   0  0  0  0  0  0  0  0  0  0  0  0
   40.7056   37.4815   52.2103 C   0  0  0  0  0  0  0  0  0  0  0  0
   34.7072   36.2177   59.7472 C   0  0  0  0  0  0  0  0  0  0  0  0
  1  2  1  0
  3  2  1  6
  3  4  1  0
  3  5  1  0
  5  6  1  0
  4  7  1  1
  7  8  1  0
  8  9  1  0
  8 10  1  0
  6 11  1  0
 10 12  1  6
 11 13  1  0
  4 14  1  0
 11 14  1  0
 14 12  1  6
 10 15  1  0
  6 16  1  0
 16 17  1  1
 13 18  1  0
  9 19  1  0
 15 19  1  0
 16 20  1  0
 18 20  1  0
 20 21  1  6
 15 22  1  0
 21 23  1  0
M  END
$$$$
72
     RDKit          3D

 23 27  0  0  0  0  0  0  0  0999 V2000
   35.0329   30.9210   53.0522 O   0  0  0  0  0  0  0  0  0  0  0  0
   35.9482   31.6807   53.4067 C   0  0  0  0  0  0  0  0  0  0  0  0
   36.9207   32.0950   52.5101 C   0  0  0  0  0  0  0  0  0  0  0  0
   35.8187   32.4898   54.6177 N   0  0  0  0  0  0  0  0  0  0  0  0
   37.8452   33.1267   52.8266 C   0  0  1  0  0  0  0  0  0  0  0  0
   34.9028   32.1932   55.5570 O   0  0  0  0  0  0  0  0  0  0  0  0
   36.7683   33.5064   54.9204 C   0  0  0  0  0  0  0  0  0  0  0  0
   38.8569   33.5644   51.8471 C   0  0  1  0  0  0  0  0  0  0  0  0
   37.7359   33.8710   53.9920 C   0  0  2  0  0  0  0  0  0  0  0  0
   36.5894   34.0579   56.2360 C   0  0  0  0  0  0  0  0  0  0  0  0
   38.5703   35.0365   54.2057 C   0  0  2  0  0  0  0  0  0  0  0  0
   38.4889   35.8134   55.4069 C   0  0  1  0  0  0  0  0  0  0  0  0
   37.4645   35.2754   56.3913 C   0  0  0  0  0  0  0  0  0  0  0  0
   37.3415   36.1245   57.8152 C   0  0  0  0  0  0  0  0  0  0  0  0
   39.3108   36.8830   55.6741 C   0  0  0  0  0  0  0  0  0  0  0  0
   35.8158   33.7400   57.3655 C   0  0  0  0  0  0  0  0  0  0  0  0
   39.3762   35.7665   53.4025 C   0  0  2  0  0  0  0  0  0  0  0  0
   35.7306   34.4175   58.4772 C   0  0  0  0  0  0  0  0  0  0  0  0
   39.0600   32.9953   50.6831 N   0  0  0  0  0  0  0  0  0  0  0  0
   39.5726   35.1611   51.9791 C   0  0  0  0  0  0  0  0  0  0  0  0
   39.9429   36.8080   53.9446 C   0  0  0  0  0  0  0  0  0  0  0  0
   36.4676   35.6188   58.6754 C   0  0  0  0  0  0  0  0  0  0  0  0
   40.3912   35.3658   51.0858 O   0  0  0  0  0  0  0  0  0  0  0  0
  1  2  2  0
  2  3  1  0
  2  4  1  0
  5  3  1  6
  4  6  1  0
  4  7  1  0
  5  8  1  0
  5  9  1  0
  9  7  1  6
  7 10  1  0
  9 11  1  0
 11 12  1  6
 10 13  1  0
 12 13  1  0
 13 14  1  0
 12 15  1  1
 10 16  1  0
 11 17  1  0
 16 18  1  0
  8 19  1  6
  8 20  1  0
 17 20  1  0
 15 21  1  0
 17 21  1  1
 14 22  1  0
 18 22  1  0
 20 23  2  0
M  END
$$$$
73
     RDKit          3D

 23 26  0  0  0  0  0  0  0  0999 V2000
   40.5234   35.9614   51.1397 N   0  0  0  0  0  0  0  0  0  0  0  0
   40.5658   36.9274   52.0201 C   0  0  0  0  0  0  0  0  0  0  0  0
   39.6936   34.9150   51.4035 C   0  0  0  0  0  0  0  0  0  0  0  0
   39.6109   36.7071   53.1794 C   0  0  0  0  0  0  0  0  0  0  0  0
   38.8764   35.6389   53.3646 C   0  0  0  0  0  0  0  0  0  0  0  0
   38.9275   34.6685   52.3822 C   0  0  0  0  0  0  0  0  0  0  0  0
   38.0072   35.4119   54.4743 N   0  0  0  0  0  0  0  0  0  0  0  0
   38.1111   33.4827   52.6002 C   0  0  0  0  0  0  0  0  0  0  0  0
   37.3923   33.2980   53.4605 N   0  0  0  0  0  0  0  0  0  0  0  0
   38.2181   32.3349   51.5710 O   0  0  0  0  0  0  0  0  0  0  0  0
   36.5832   32.1101   53.7443 C   0  0  0  0  0  0  0  0  0  0  0  0
   36.1240   31.4232   52.8914 O   0  0  0  0  0  0  0  0  0  0  0  0
   37.3487   34.2433   54.6082 C   0  0  2  0  0  0  0  0  0  0  0  0
   36.4440   33.7711   55.4815 C   0  0  2  0  0  0  0  0  0  0  0  0
   35.9279   32.4941   54.9736 C   0  0  2  0  0  0  0  0  0  0  0  0
   35.0181   31.6438   55.6587 O   0  0  0  0  0  0  0  0  0  0  0  0
   36.0020   34.4504   56.6180 C   0  0  2  0  0  0  0  0  0  0  0  0
   35.4087   35.6403   56.6357 C   0  0  0  0  0  0  0  0  0  0  0  0
   36.4335   33.9181   57.8343 C   0  0  0  0  0  0  0  0  0  0  0  0
   35.9818   34.3301   58.9613 C   0  0  1  0  0  0  0  0  0  0  0  0
   34.9753   36.1919   57.8322 C   0  0  0  0  0  0  0  0  0  0  0  0
   36.4266   33.7373   60.2482 F   0  0  0  0  0  0  0  0  0  0  0  0
   35.3593   35.5875   59.0025 C   0  0  0  0  0  0  0  0  0  0  0  0
  1  2  1  0
  1  3  1  0
  2  4  1  0
  4  5  1  0
  3  6  1  0
  5  6  1  0
  5  7  1  0
  6  8  1  0
  8  9  1  0
  8 10  2  0
  9 11  1  0
 11 12  2  0
 13  7  1  6
  9 13  1  0
 13 14  1  0
 11 15  1  0
 14 15  1  0
 15 16  1  1
 14 17  1  6
 17 18  1  6
 17 19  1  0
 19 20  1  0
 18 21  1  0
 20 22  1  1
 20 23  1  0
 21 23  1  0
M  END
$$$$
74
     RDKit          3D

 23 26  0  0  0  0  0  0  0  0999 V2000
   35.6310   31.7763   54.9744 C   0  0  0  0  0  0  0  0  0  0  0  0
   36.2654   32.7755   55.3225 C   0  0  0  0  0  0  0  0  0  0  0  0
   35.5410   31.3666   53.6325 C   0  0  1  0  0  0  0  0  0  0  0  0
   36.3462   31.9929   52.7154 C   0  0  0  0  0  0  0  0  0  0  0  0
   37.0447   33.3618   54.4565 C   0  0  0  0  0  0  0  0  0  0  0  0
   37.1943   33.0509   53.2990 C   0  0  2  0  0  0  0  0  0  0  0  0
   38.1246   33.7628   52.3270 C   0  0  2  0  0  0  0  0  0  0  0  0
   34.7520   30.2949   53.1945 C   0  0  0  0  0  0  0  0  0  0  0  0
   37.8956   34.5611   54.8861 C   0  0  2  0  0  0  0  0  0  0  0  0
   37.8023   35.0763   56.1834 O   0  0  0  0  0  0  0  0  0  0  0  0
   38.1897   36.3576   56.3400 C   0  0  1  0  0  0  0  0  0  0  0  0
   39.0071   36.8337   55.3408 C   0  0  0  0  0  0  0  0  0  0  0  0
   38.4037   33.3297   51.0061 N   0  0  0  0  0  0  0  0  0  0  0  0
   39.3631   34.1557   50.5425 N   0  0  0  0  0  0  0  0  0  0  0  0
   38.6749   35.1992   53.9423 C   0  0  1  0  0  0  0  0  0  0  0  0
   38.9100   34.7822   52.5544 C   0  0  0  0  0  0  0  0  0  0  0  0
   39.2463   36.4070   54.2053 N   0  0  0  0  0  0  0  0  0  0  0  0
   39.6295   35.0670   51.4799 N   0  0  0  0  0  0  0  0  0  0  0  0
   37.1476   36.9714   56.8049 C   0  0  2  0  0  0  0  0  0  0  0  0
   36.5227   36.4675   57.9636 O   0  0  0  0  0  0  0  0  0  0  0  0
   36.0328   37.2539   55.8462 C   0  0  0  0  0  0  0  0  0  0  0  0
   36.7574   36.7465   59.2320 C   0  0  0  0  0  0  0  0  0  0  0  0
   34.7274   36.9218   56.3704 O   0  0  0  0  0  0  0  0  0  0  0  0
  1  2  1  0
  1  3  1  0
  3  4  1  0
  2  5  1  0
  6  4  1  6
  5  6  1  0
  6  7  1  0
  3  8  1  1
  5  9  1  0
  9 10  1  6
 10 11  1  0
 11 12  1  6
  7 13  1  1
 13 14  1  0
  9 15  1  0
  7 16  1  0
 15 16  1  0
 12 17  1  0
 15 17  1  6
 14 18  1  0
 16 18  1  0
 11 19  1  0
 19 20  1  0
 19 21  1  6
 20 22  1  0
 21 23  1  0
M  END
$$$$
75
     RDKit          3D

 23 26  0  0  0  0  0  0  0  0999 V2000
   40.5234   35.9614   51.1397 N   0  0  0  0  0  0  0  0  0  0  0  0
   40.5658   36.9274   52.0201 C   0  0  0  0  0  0  0  0  0  0  0  0
   39.6936   34.9150   51.4035 C   0  0  0  0  0  0  0  0  0  0  0  0
   39.6109   36.7071   53.1794 C   0  0  0  0  0  0  0  0  0  0  0  0
   38.8764   35.6389   53.3646 C   0  0  0  0  0  0  0  0  0  0  0  0
   38.9275   34.6685   52.3822 C   0  0  0  0  0  0  0  0  0  0  0  0
   38.0072   35.4119   54.4743 N   0  0  0  0  0  0  0  0  0  0  0  0
   38.1111   33.4827   52.6002 C   0  0  0  0  0  0  0  0  0  0  0  0
   37.3923   33.2980   53.4605 N   0  0  0  0  0  0  0  0  0  0  0  0
   38.2181   32.3349   51.5710 O   0  0  0  0  0  0  0  0  0  0  0  0
   36.5832   32.1101   53.7443 C   0  0  0  0  0  0  0  0  0  0  0  0
   36.1240   31.4232   52.8914 O   0  0  0  0  0  0  0  0  0  0  0  0
   37.3487   34.2433   54.6082 C   0  0  2  0  0  0  0  0  0  0  0  0
   36.4440   33.7711   55.4815 C   0  0  2  0  0  0  0  0  0  0  0  0
   35.9279   32.4941   54.9736 C   0  0  2  0  0  0  0  0  0  0  0  0
   35.0181   31.6438   55.6587 O   0  0  0  0  0  0  0  0  0  0  0  0
   36.0020   34.4504   56.6180 C   0  0  2  0  0  0  0  0  0  0  0  0
   35.4087   35.6403   56.6357 C   0  0  0  0  0  0  0  0  0  0  0  0
   36.4335   33.9181   57.8343 C   0  0  0  0  0  0  0  0  0  0  0  0
   35.9818   34.3301   58.9613 C   0  0  1  0  0  0  0  0  0  0  0  0
   34.9753   36.1919   57.8322 C   0  0  0  0  0  0  0  0  0  0  0  0
   36.4266   33.7373   60.2482 O   0  0  0  0  0  0  0  0  0  0  0  0
   35.2008   35.4545   58.9947 C   0  0  0  0  0  0  0  0  0  0  0  0
  1  2  1  0
  1  3  1  0
  2  4  1  0
  4  5  1  0
  3  6  1  0
  5  6  1  0
  5  7  1  0
  6  8  1  0
  8  9  1  0
  8 10  2  0
  9 11  1  0
 11 12  2  0
 13  7  1  6
  9 13  1  0
 13 14  1  0
 11 15  1  0
 14 15  1  0
 15 16  1  1
 14 17  1  6
 17 18  1  6
 17 19  1  0
 19 20  1  0
 18 21  1  0
 20 22  1  1
 20 23  1  0
 21 23  1  0
M  END
$$$$
76
     RDKit          3D

 23 26  0  0  0  0  0  0  0  0999 V2000
   35.6310   31.7763   54.9744 C   0  0  0  0  0  0  0  0  0  0  0  0
   36.2654   32.7755   55.3225 C   0  0  0  0  0  0  0  0  0  0  0  0
   35.5410   31.3666   53.6325 C   0  0  1  0  0  0  0  0  0  0  0  0
   36.3462   31.9929   52.7154 C   0  0  0  0  0  0  0  0  0  0  0  0
   37.0447   33.3618   54.4565 C   0  0  0  0  0  0  0  0  0  0  0  0
   37.1943   33.0509   53.2990 C   0  0  2  0  0  0  0  0  0  0  0  0
   38.1246   33.7628   52.3270 C   0  0  2  0  0  0  0  0  0  0  0  0
   34.7520   30.2949   53.1945 C   0  0  0  0  0  0  0  0  0  0  0  0
   37.8956   34.5611   54.8861 C   0  0  2  0  0  0  0  0  0  0  0  0
   37.8023   35.0763   56.1834 O   0  0  0  0  0  0  0  0  0  0  0  0
   38.1897   36.3576   56.3400 C   0  0  1  0  0  0  0  0  0  0  0  0
   38.3582   33.2888   50.9672 N   0  0  0  0  0  0  0  0  0  0  0  0
   38.1210   36.8787   57.5955 C   0  0  1  0  0  0  0  0  0  0  0  0
   39.3548   34.1037   50.4918 C   0  0  0  0  0  0  0  0  0  0  0  0
   38.6617   35.2558   54.0433 C   0  0  0  0  0  0  0  0  0  0  0  0
   39.2705   36.4900   54.5676 C   0  0  0  0  0  0  0  0  0  0  0  0
   39.1117   36.9565   55.6166 C   0  0  0  0  0  0  0  0  0  0  0  0
   38.8866   34.8296   52.6880 C   0  0  2  0  0  0  0  0  0  0  0  0
   39.6977   35.2457   51.3348 C   0  0  0  0  0  0  0  0  0  0  0  0
   38.3956   38.0932   57.9957 O   0  0  0  0  0  0  0  0  0  0  0  0
   36.7997   36.5035   58.3938 C   0  0  0  0  0  0  0  0  0  0  0  0
   35.9036   37.6160   58.6670 O   0  0  0  0  0  0  0  0  0  0  0  0
   36.2158   35.3491   58.6753 O   0  0  0  0  0  0  0  0  0  0  0  0
  1  2  1  0
  1  3  1  0
  3  4  1  0
  2  5  1  0
  6  4  1  6
  5  6  1  0
  6  7  1  0
  3  8  1  1
  5  9  1  0
  9 10  1  6
 10 11  1  0
  7 12  1  1
 11 13  1  0
 12 14  1  0
  9 15  1  0
 15 16  1  0
 11 17  1  1
 16 17  1  0
  7 18  1  0
 15 18  1  0
 14 19  1  0
 18 19  1  6
 13 20  1  6
 13 21  1  0
 21 22  1  0
 21 23  2  0
M  END
$$$$
77
     RDKit          3D

 23 26  0  0  0  0  0  0  0  0999 V2000
   40.1538   35.2600   51.0802 C   0  0  0  0  0  0  0  0  0  0  0  0
   39.2961   34.3037   51.3555 N   0  0  0  0  0  0  0  0  0  0  0  0
   40.2238   36.3171   51.9812 C   0  0  2  0  0  0  0  0  0  0  0  0
   39.3290   36.2201   53.0969 C   0  0  1  0  0  0  0  0  0  0  0  0
   38.5968   34.5029   52.6614 C   0  0  1  0  0  0  0  0  0  0  0  0
   37.7899   33.2067   52.8417 C   0  0  1  0  0  0  0  0  0  0  0  0
   38.7813   35.3657   53.4163 N   0  0  0  0  0  0  0  0  0  0  0  0
   39.6648   37.5459   53.9991 C   0  0  2  0  0  0  0  0  0  0  0  0
   39.1296   37.8041   55.2554 C   0  0  0  0  0  0  0  0  0  0  0  0
   39.3765   39.0036   55.9032 C   0  0  0  0  0  0  0  0  0  0  0  0
   37.5919   32.7977   54.2148 C   0  0  1  0  0  0  0  0  0  0  0  0
   37.1959   32.4177   51.9981 C   0  0  0  0  0  0  0  0  0  0  0  0
   38.1270   33.6040   55.3288 O   0  0  0  0  0  0  0  0  0  0  0  0
   38.9455   39.1832   57.1991 C   0  0  0  0  0  0  0  0  0  0  0  0
   36.6474   31.9063   54.5842 C   0  0  0  0  0  0  0  0  0  0  0  0
   38.4396   38.0468   57.8891 C   0  0  0  0  0  0  0  0  0  0  0  0
   38.1828   37.0090   57.2595 C   0  0  0  0  0  0  0  0  0  0  0  0
   38.4925   36.7865   56.0152 C   0  0  0  0  0  0  0  0  0  0  0  0
   36.1562   31.4814   52.4557 C   0  0  1  0  0  0  0  0  0  0  0  0
   35.4351   30.7546   51.4090 O   0  0  0  0  0  0  0  0  0  0  0  0
   35.9054   31.2207   53.6952 C   0  0  0  0  0  0  0  0  0  0  0  0
   40.4984   38.4246   53.3402 N   0  0  0  0  0  0  0  0  0  0  0  0
   40.8325   37.7536   52.0400 N   0  0  0  0  0  0  0  0  0  0  0  0
  1  2  1  0
  3  1  1  6
  3  4  1  0
  5  2  1  1
  5  6  1  0
  4  7  1  1
  5  7  1  0
  4  8  1  0
  8  9  1  6
  9 10  1  0
  6 11  1  0
  6 12  1  1
 11 13  1  1
 10 14  1  0
 11 15  1  0
 14 16  1  0
 16 17  1  0
  9 18  1  0
 17 18  1  0
 12 19  1  0
 19 20  1  6
 15 21  1  0
 19 21  1  0
  8 22  1  0
  3 23  1  0
 22 23  1  0
M  END
$$$$
78
     RDKit          3D

 23 26  0  0  0  0  0  0  0  0999 V2000
   35.0329   30.9210   53.0522 O   0  0  0  0  0  0  0  0  0  0  0  0
   35.9482   31.6807   53.4067 C   0  0  0  0  0  0  0  0  0  0  0  0
   36.9207   32.0950   52.5101 C   0  0  0  0  0  0  0  0  0  0  0  0
   35.8187   32.4898   54.6177 N   0  0  0  0  0  0  0  0  0  0  0  0
   37.8452   33.1267   52.8266 C   0  0  1  0  0  0  0  0  0  0  0  0
   34.9028   32.1932   55.5570 O   0  0  0  0  0  0  0  0  0  0  0  0
   36.7683   33.5064   54.9204 C   0  0  1  0  0  0  0  0  0  0  0  0
   38.8569   33.5644   51.8471 C   0  0  0  0  0  0  0  0  0  0  0  0
   37.7359   33.8710   53.9920 C   0  0  2  0  0  0  0  0  0  0  0  0
   36.5371   34.2639   56.0322 N   0  0  0  0  0  0  0  0  0  0  0  0
   38.4133   35.1960   54.0502 C   0  0  2  0  0  0  0  0  0  0  0  0
   39.3760   35.4917   53.1362 C   0  0  0  0  0  0  0  0  0  0  0  0
   39.4916   34.8336   51.9578 C   0  0  1  0  0  0  0  0  0  0  0  0
   40.3961   35.2169   50.8702 N   0  0  0  0  0  0  0  0  0  0  0  0
   37.0989   35.4909   56.1729 C   0  0  1  0  0  0  0  0  0  0  0  0
   36.9159   36.1629   57.3642 C   0  0  0  0  0  0  0  0  0  0  0  0
   38.1146   35.8148   55.3593 C   0  0  0  0  0  0  0  0  0  0  0  0
   35.8692   35.8755   58.3131 C   0  0  0  0  0  0  0  0  0  0  0  0
   35.4659   36.8994   59.2361 C   0  0  0  0  0  0  0  0  0  0  0  0
   37.7049   37.3264   57.7074 C   0  0  0  0  0  0  0  0  0  0  0  0
   40.7149   36.5008   51.0334 O   0  0  0  0  0  0  0  0  0  0  0  0
   36.3498   37.8952   59.5932 C   0  0  0  0  0  0  0  0  0  0  0  0
   37.3642   38.1820   58.7790 C   0  0  0  0  0  0  0  0  0  0  0  0
  1  2  2  0
  2  3  1  0
  2  4  1  0
  5  3  1  6
  4  6  1  0
  4  7  1  0
  5  8  1  0
  9  5  1  6
  7  9  1  0
  7 10  1  6
  9 11  1  0
 11 12  1  1
  8 13  1  0
 12 13  1  0
 13 14  1  1
 10 15  1  0
 15 16  1  1
 11 17  1  0
 15 17  1  0
 16 18  1  0
 18 19  1  0
 16 20  1  0
 14 21  1  0
 19 22  1  0
 20 23  1  0
 22 23  1  0
M  END
$$$$
79
     RDKit          3D

 23 26  0  0  0  0  0  0  0  0999 V2000
   34.9931   30.8804   53.4429 C   0  0  1  0  0  0  0  0  0  0  0  0
   34.6769   31.1653   54.5850 C   0  0  0  0  0  0  0  0  0  0  0  0
   35.7133   32.0808   55.0873 C   0  0  2  0  0  0  0  0  0  0  0  0
   35.8095   32.7196   56.3709 N   0  0  0  0  0  0  0  0  0  0  0  0
   36.6380   33.6939   56.6293 C   0  0  2  0  0  0  0  0  0  0  0  0
   36.6920   32.6563   54.2728 C   0  0  1  0  0  0  0  0  0  0  0  0
   36.4978   34.2383   57.9885 N   0  0  0  0  0  0  0  0  0  0  0  0
   36.1011   33.4755   59.0632 C   0  0  0  0  0  0  0  0  0  0  0  0
   37.4387   34.1582   55.7328 C   0  0  0  0  0  0  0  0  0  0  0  0
   33.8981   29.8884   52.7499 C   0  0  0  0  0  0  0  0  0  0  0  0
   35.9789   31.2246   52.5341 C   0  0  0  0  0  0  0  0  0  0  0  0
   36.8172   32.2577   52.9436 C   0  0  2  0  0  0  0  0  0  0  0  0
   37.0421   35.3852   58.2547 C   0  0  0  0  0  0  0  0  0  0  0  0
   37.4968   33.7497   54.6480 C   0  0  2  0  0  0  0  0  0  0  0  0
   38.2913   34.3115   53.5285 C   0  0  2  0  0  0  0  0  0  0  0  0
   37.7724   32.7297   51.9935 C   0  0  0  0  0  0  0  0  0  0  0  0
   36.5360   36.4729   57.9740 O   0  0  0  0  0  0  0  0  0  0  0  0
   38.4080   33.8160   52.4262 C   0  0  2  0  0  0  0  0  0  0  0  0
   39.2325   35.5129   53.7654 C   0  0  0  0  0  0  0  0  0  0  0  0
   39.4631   34.5338   51.5874 N   0  0  0  0  0  0  0  0  0  0  0  0
   39.8678   35.5828   52.4346 C   0  0  0  0  0  0  0  0  0  0  0  0
   37.6401   35.6386   59.4599 O   0  0  0  0  0  0  0  0  0  0  0  0
   40.7351   36.5335   52.0798 C   0  0  0  0  0  0  0  0  0  0  0  0
  1  2  1  0
  3  2  1  6
  3  4  1  0
  4  5  1  0
  6  3  1  6
  5  7  1  6
  7  8  1  0
  5  9  1  0
  1 10  1  6
  1 11  1  0
  6 12  1  0
 12 11  1  1
  7 13  1  0
  6 14  1  0
 14  9  1  6
 14 15  1  0
 12 16  1  0
 13 17  2  0
 15 18  1  0
 18 16  1  1
 15 19  1  1
 18 20  1  0
 19 21  1  0
 20 21  1  0
 13 22  1  0
 21 23  1  0
M  END
$$$$
8
     RDKit          3D

 17 20  0  0  0  0  0  0  0  0999 V2000
   37.7268   32.8355   52.0418 C   0  0  0  0  0  0  0  0  0  0  0  0
   38.5120   33.7450   51.4079 C   0  0  0  0  0  0  0  0  0  0  0  0
   37.2997   33.0342   53.3131 C   0  0  0  0  0  0  0  0  0  0  0  0
   39.0766   34.8521   52.1137 C   0  0  1  0  0  0  0  0  0  0  0  0
   37.7728   34.1889   54.0332 C   0  0  2  0  0  0  0  0  0  0  0  0
   38.6038   34.8978   53.5746 C   0  0  2  0  0  0  0  0  0  0  0  0
   39.2948   36.1271   54.1259 C   0  0  0  0  0  0  0  0  0  0  0  0
   36.3348   32.1535   53.9853 C   0  0  2  0  0  0  0  0  0  0  0  0
   36.9921   34.0275   55.3269 N   0  0  0  0  0  0  0  0  0  0  0  0
   39.9850   35.8375   51.8236 N   0  0  0  0  0  0  0  0  0  0  0  0
   40.0678   36.6433   52.9900 C   0  0  0  0  0  0  0  0  0  0  0  0
   40.9040   37.9514   53.0388 C   0  0  0  0  0  0  0  0  0  0  0  0
   35.6752   31.1458   53.5696 C   0  0  0  0  0  0  0  0  0  0  0  0
   36.2510   32.8568   55.2582 C   0  0  0  0  0  0  0  0  0  0  0  0
   34.8296   30.5295   54.5966 C   0  0  0  0  0  0  0  0  0  0  0  0
   35.4906   32.3312   56.3826 N   0  0  0  0  0  0  0  0  0  0  0  0
   34.7861   31.1524   55.7977 C   0  0  0  0  0  0  0  0  0  0  0  0
  1  2  1  0
  1  3  1  0
  4  2  1  1
  3  5  1  0
  4  6  1  0
  5  6  1  0
  6  7  1  6
  3  8  1  0
  5  9  1  1
  4 10  1  0
  7 11  1  0
 10 11  1  0
 11 12  1  0
  8 13  1  6
  8 14  1  0
  9 14  1  0
 13 15  1  0
 14 16  1  0
 15 17  1  0
 16 17  1  0
M  END
$$$$
80
     RDKit          3D

 23 27  0  0  0  0  0  0  0  0999 V2000
   34.9931   30.8804   53.4429 C   0  0  0  0  0  0  0  0  0  0  0  0
   34.6769   31.1653   54.5850 C   0  0  0  0  0  0  0  0  0  0  0  0
   35.7133   32.0808   55.0873 C   0  0  2  0  0  0  0  0  0  0  0  0
   35.8095   32.7196   56.3709 N   0  0  0  0  0  0  0  0  0  0  0  0
   36.6380   33.6939   56.6293 C   0  0  0  0  0  0  0  0  0  0  0  0
   36.4479   32.8370   54.1784 N   0  0  0  0  0  0  0  0  0  0  0  0
   35.7289   31.5315   52.5674 C   0  0  0  0  0  0  0  0  0  0  0  0
   37.2741   33.8631   54.7791 C   0  0  0  0  0  0  0  0  0  0  0  0
   37.3515   34.2855   55.9069 C   0  0  0  0  0  0  0  0  0  0  0  0
   38.2207   34.5109   53.7139 C   0  0  0  0  0  0  0  0  0  0  0  0
   38.3359   33.9065   52.4704 C   0  0  2  0  0  0  0  0  0  0  0  0
   36.5429   32.4220   52.9341 C   0  0  0  0  0  0  0  0  0  0  0  0
   39.2252   34.5281   51.4408 C   0  0  0  0  0  0  0  0  0  0  0  0
   39.0027   35.7250   54.0594 C   0  0  0  0  0  0  0  0  0  0  0  0
   39.8536   36.2648   53.0013 C   0  0  0  0  0  0  0  0  0  0  0  0
   39.9021   35.6785   51.7982 C   0  0  0  0  0  0  0  0  0  0  0  0
   37.5155   32.8580   52.0214 N   0  0  0  0  0  0  0  0  0  0  0  0
   40.7261   36.2803   50.8725 O   0  0  0  0  0  0  0  0  0  0  0  0
   36.5863   34.1259   58.1327 N   0  0  0  0  0  0  0  0  0  0  0  0
   36.6212   35.2979   58.4543 C   0  0  0  0  0  0  0  0  0  0  0  0
   35.7301   33.3809   59.0181 C   0  0  0  0  0  0  0  0  0  0  0  0
   35.6932   35.8446   59.4194 C   0  0  0  0  0  0  0  0  0  0  0  0
   35.2023   34.4198   59.9165 C   0  0  0  0  0  0  0  0  0  0  0  0
  1  2  1  0
  3  2  1  6
  3  4  1  0
  4  5  1  0
  3  6  1  0
  1  7  1  0
  6  8  1  0
  5  9  1  0
  8  9  1  0
  8 10  1  0
 10 11  1  0
  6 12  1  0
  7 12  1  0
 11 13  1  6
 10 14  1  0
 14 15  1  0
 13 16  1  0
 15 16  1  0
 11 17  1  0
 12 17  1  0
 16 18  1  0
  5 19  1  0
 19 20  1  0
 19 21  1  0
 20 22  1  0
 21 23  1  0
 22 23  1  0
M  END
$$$$
81
     RDKit          3D

 23 26  0  0  0  0  0  0  0  0999 V2000
   34.8956   30.9053   52.9411 O   0  0  0  0  0  0  0  0  0  0  0  0
   35.4615   31.5137   53.8836 C   0  0  0  0  0  0  0  0  0  0  0  0
   36.5628   32.2798   53.7347 C   0  0  2  0  0  0  0  0  0  0  0  0
   37.0217   33.1338   54.7817 C   0  0  2  0  0  0  0  0  0  0  0  0
   35.0575   31.6032   55.2619 N   0  0  0  0  0  0  0  0  0  0  0  0
   37.2100   32.4194   52.4255 C   0  0  0  0  0  0  0  0  0  0  0  0
   36.3808   33.0401   55.9737 N   0  0  0  0  0  0  0  0  0  0  0  0
   38.1964   33.3803   52.2319 C   0  0  1  0  0  0  0  0  0  0  0  0
   35.4751   32.2766   56.2338 C   0  0  0  0  0  0  0  0  0  0  0  0
   38.5677   34.2506   53.2703 C   0  0  0  0  0  0  0  0  0  0  0  0
   37.9530   34.1487   54.5273 C   0  0  2  0  0  0  0  0  0  0  0  0
   39.7018   35.3045   53.0562 C   0  0  1  0  0  0  0  0  0  0  0  0
   40.1928   35.3013   51.7195 C   0  0  2  0  0  0  0  0  0  0  0  0
   40.9418   36.4056   51.4373 N   0  0  0  0  0  0  0  0  0  0  0  0
   40.0011   36.2236   53.9324 C   0  0  0  0  0  0  0  0  0  0  0  0
   39.7695   34.3926   50.7618 N   0  0  0  0  0  0  0  0  0  0  0  0
   39.4686   36.2604   55.3106 C   0  0  0  0  0  0  0  0  0  0  0  0
   38.9080   33.4368   50.9676 C   0  0  0  0  0  0  0  0  0  0  0  0
   39.7575   37.0815   56.2749 C   0  0  0  0  0  0  0  0  0  0  0  0
   38.4544   35.1399   55.6056 C   0  0  0  0  0  0  0  0  0  0  0  0
   39.1105   38.1325   56.6911 C   0  0  0  0  0  0  0  0  0  0  0  0
   38.2935   38.7356   55.8269 O   0  0  0  0  0  0  0  0  0  0  0  0
   37.2483   39.6329   56.2284 C   0  0  0  0  0  0  0  0  0  0  0  0
  1  2  2  0
  2  3  1  0
  3  4  1  0
  2  5  1  0
  3  6  1  6
  4  7  1  6
  8  6  1  1
  5  9  1  0
  7  9  1  0
  8 10  1  0
  4 11  1  0
 10 11  1  0
 10 12  1  0
 12 13  1  0
 13 14  1  6
 12 15  1  6
 13 16  1  0
 15 17  1  0
  8 18  1  0
 16 18  1  0
 17 19  1  0
 11 20  1  1
 17 20  1  0
 19 21  1  0
 21 22  1  0
 22 23  1  0
M  END
$$$$
82
     RDKit          3D

 23 27  0  0  0  0  0  0  0  0999 V2000
   35.0329   30.9210   53.0522 O   0  0  0  0  0  0  0  0  0  0  0  0
   35.9482   31.6807   53.4067 C   0  0  0  0  0  0  0  0  0  0  0  0
   36.9207   32.0950   52.5101 C   0  0  0  0  0  0  0  0  0  0  0  0
   35.8187   32.4898   54.6177 N   0  0  0  0  0  0  0  0  0  0  0  0
   37.8452   33.1267   52.8266 C   0  0  1  0  0  0  0  0  0  0  0  0
   34.9028   32.1932   55.5570 O   0  0  0  0  0  0  0  0  0  0  0  0
   36.7683   33.5064   54.9204 C   0  0  0  0  0  0  0  0  0  0  0  0
   38.8569   33.5644   51.8471 C   0  0  1  0  0  0  0  0  0  0  0  0
   37.7359   33.8710   53.9920 C   0  0  2  0  0  0  0  0  0  0  0  0
   36.5894   34.0579   56.2360 C   0  0  0  0  0  0  0  0  0  0  0  0
   38.5703   35.0365   54.2057 C   0  0  2  0  0  0  0  0  0  0  0  0
   38.4889   35.8134   55.4069 C   0  0  1  0  0  0  0  0  0  0  0  0
   37.4645   35.2754   56.3913 C   0  0  0  0  0  0  0  0  0  0  0  0
   37.3415   36.1245   57.8152 C   0  0  0  0  0  0  0  0  0  0  0  0
   39.3108   36.8830   55.6741 C   0  0  0  0  0  0  0  0  0  0  0  0
   35.8158   33.7400   57.3655 C   0  0  0  0  0  0  0  0  0  0  0  0
   39.3762   35.7665   53.4025 C   0  0  2  0  0  0  0  0  0  0  0  0
   35.7306   34.4175   58.4772 C   0  0  0  0  0  0  0  0  0  0  0  0
   39.0600   32.9953   50.6831 N   0  0  0  0  0  0  0  0  0  0  0  0
   39.5726   35.1611   51.9791 C   0  0  0  0  0  0  0  0  0  0  0  0
   39.9429   36.8080   53.9446 C   0  0  0  0  0  0  0  0  0  0  0  0
   36.4676   35.6188   58.6754 C   0  0  0  0  0  0  0  0  0  0  0  0
   40.3467   35.6168   51.0205 N   0  0  0  0  0  0  0  0  0  0  0  0
  1  2  2  0
  2  3  1  0
  2  4  1  0
  5  3  1  6
  4  6  1  0
  4  7  1  0
  5  8  1  0
  5  9  1  0
  9  7  1  6
  7 10  1  0
  9 11  1  0
 11 12  1  6
 10 13  1  0
 12 13  1  0
 13 14  1  0
 12 15  1  1
 10 16  1  0
 11 17  1  0
 16 18  1  0
  8 19  1  6
  8 20  1  0
 17 20  1  0
 15 21  1  0
 17 21  1  1
 14 22  1  0
 18 22  1  0
 20 23  2  0
M  END
$$$$
83
     RDKit          3D

 23 25  0  0  0  0  0  0  0  0999 V2000
   35.6310   31.7763   54.9744 C   0  0  0  0  0  0  0  0  0  0  0  0
   36.2654   32.7755   55.3225 N   0  0  0  0  0  0  0  0  0  0  0  0
   36.2588   33.2455   56.6693 C   0  0  0  0  0  0  0  0  0  0  0  0
   37.4328   33.1003   54.5738 C   0  0  0  0  0  0  0  0  0  0  0  0
   36.8295   34.4977   56.8321 N   0  0  0  0  0  0  0  0  0  0  0  0
   34.6545   31.2844   55.3986 O   0  0  0  0  0  0  0  0  0  0  0  0
   37.7426   35.0732   55.9814 C   0  0  0  0  0  0  0  0  0  0  0  0
   37.9756   34.3875   54.7752 C   0  0  1  0  0  0  0  0  0  0  0  0
   38.3816   36.3079   56.4111 C   0  0  0  0  0  0  0  0  0  0  0  0
   36.0696   30.8932   53.8969 C   0  0  0  0  0  0  0  0  0  0  0  0
   38.9451   35.1287   54.0159 C   0  0  1  0  0  0  0  0  0  0  0  0
   39.2967   34.6752   52.6128 C   0  0  0  0  0  0  0  0  0  0  0  0
   38.8069   33.4941   52.0478 C   0  0  0  0  0  0  0  0  0  0  0  0
   40.3023   35.5626   51.7438 C   0  0  2  0  0  0  0  0  0  0  0  0
   40.6679   36.7739   52.2051 C   0  0  0  0  0  0  0  0  0  0  0  0
   40.0049   35.3491   50.4125 O   0  0  0  0  0  0  0  0  0  0  0  0
   35.4568   32.7981   57.5221 O   0  0  0  0  0  0  0  0  0  0  0  0
   36.4119   35.1993   58.1697 C   0  0  0  0  0  0  0  0  0  0  0  0
   39.2296   36.9407   55.5242 C   0  0  0  0  0  0  0  0  0  0  0  0
   39.8563   38.1648   55.9604 C   0  0  0  0  0  0  0  0  0  0  0  0
   39.4431   36.4328   54.2110 C   0  0  1  0  0  0  0  0  0  0  0  0
   40.3488   37.1984   53.3643 C   0  0  0  0  0  0  0  0  0  0  0  0
   34.9906   31.0767   52.7456 O   0  0  0  0  0  0  0  0  0  0  0  0
  1  2  1  0
  2  3  1  0
  2  4  1  0
  3  5  1  0
  1  6  2  0
  5  7  1  0
  8  4  1  1
  7  8  1  0
  7  9  1  0
  1 10  1  0
  8 11  1  0
 11 12  1  6
 12 13  1  0
 12 14  1  0
 14 15  1  0
 14 16  1  6
  3 17  2  0
  5 18  1  0
  9 19  1  0
 19 20  1  0
 11 21  1  0
 19 21  1  0
 15 22  1  0
 21 22  1  1
 10 23  1  0
M  END
$$$$
84
     RDKit          3D

 23 27  0  0  0  0  0  0  0  0999 V2000
   38.3536   33.1601   51.7483 C   0  0  0  0  0  0  0  0  0  0  0  0
   39.2535   34.1777   52.0521 C   0  0  1  0  0  0  0  0  0  0  0  0
   40.1160   34.7054   51.0231 N   0  0  0  0  0  0  0  0  0  0  0  0
   40.6041   35.8823   51.2420 N   0  0  0  0  0  0  0  0  0  0  0  0
   39.0685   35.2741   53.0264 C   0  0  1  0  0  0  0  0  0  0  0  0
   38.2836   35.2472   54.0764 C   0  0  2  0  0  0  0  0  0  0  0  0
   40.0126   36.2448   52.5333 C   0  0  0  0  0  0  0  0  0  0  0  0
   37.2907   32.6800   52.5876 C   0  0  0  0  0  0  0  0  0  0  0  0
   36.7305   33.5446   53.6577 C   0  0  2  0  0  0  0  0  0  0  0  0
   37.4933   34.5330   54.3869 C   0  0  2  0  0  0  0  0  0  0  0  0
   40.4270   37.5184   53.2553 C   0  0  0  0  0  0  0  0  0  0  0  0
   36.7121   34.6518   55.8514 C   0  0  2  0  0  0  0  0  0  0  0  0
   35.5311   32.8422   54.2461 O   0  0  0  0  0  0  0  0  0  0  0  0
   37.0998   35.8643   56.5528 C   0  0  1  0  0  0  0  0  0  0  0  0
   36.7110   36.0572   57.8946 C   0  0  1  0  0  0  0  0  0  0  0  0
   37.0727   37.2854   58.4945 C   0  0  0  0  0  0  0  0  0  0  0  0
   35.8816   33.7709   56.5349 C   0  0  0  0  0  0  0  0  0  0  0  0
   37.9696   38.0957   57.7409 C   0  0  0  0  0  0  0  0  0  0  0  0
   38.2894   36.4907   55.0095 C   0  0  0  0  0  0  0  0  0  0  0  0
   35.7220   35.4277   58.8844 C   0  0  0  0  0  0  0  0  0  0  0  0
   37.8899   36.7192   56.1399 C   0  0  0  0  0  0  0  0  0  0  0  0
   38.3964   37.7987   56.7203 N   0  0  0  0  0  0  0  0  0  0  0  0
   35.3922   34.1091   58.2887 C   0  0  0  0  0  0  0  0  0  0  0  0
  2  1  1  6
  2  3  1  0
  3  4  1  0
  2  5  1  0
  5  6  1  0
  4  7  1  0
  5  7  1  1
  1  8  1  0
  8  9  1  0
  6 10  1  0
 10  9  1  6
  7 11  1  0
 10 12  1  0
  9 13  1  1
 12 14  1  0
 14 15  1  0
 15 16  1  6
 12 17  1  1
 16 18  1  0
  6 19  1  6
 15 20  1  0
 14 21  1  1
 19 21  1  0
 18 22  1  0
 21 22  1  0
 17 23  1  0
 20 23  1  0
M  END
$$$$
85
     RDKit          3D

 23 27  0  0  0  0  0  0  0  0999 V2000
   37.7268   32.8355   52.0418 C   0  0  0  0  0  0  0  0  0  0  0  0
   38.5120   33.7450   51.4079 C   0  0  0  0  0  0  0  0  0  0  0  0
   37.2997   33.0342   53.3131 C   0  0  0  0  0  0  0  0  0  0  0  0
   39.0766   34.8521   52.1137 C   0  0  2  0  0  0  0  0  0  0  0  0
   37.7728   34.1889   54.0332 C   0  0  2  0  0  0  0  0  0  0  0  0
   38.6038   34.8978   53.5746 C   0  0  2  0  0  0  0  0  0  0  0  0
   39.2948   36.1271   54.1259 C   0  0  1  0  0  0  0  0  0  0  0  0
   37.2457   34.2090   55.4622 C   0  0  1  0  0  0  0  0  0  0  0  0
   39.2071   36.5223   55.4538 N   0  0  0  0  0  0  0  0  0  0  0  0
   40.2830   36.8952   53.3623 N   0  0  0  0  0  0  0  0  0  0  0  0
   40.3562   36.5519   51.9784 C   0  0  0  0  0  0  0  0  0  0  0  0
   39.6887   37.6416   55.8891 C   0  0  0  0  0  0  0  0  0  0  0  0
   39.8225   35.7166   51.4680 N   0  0  0  0  0  0  0  0  0  0  0  0
   37.3634   35.3143   56.2935 N   0  0  0  0  0  0  0  0  0  0  0  0
   36.4585   33.1857   55.9784 N   0  0  0  0  0  0  0  0  0  0  0  0
   38.3759   35.9775   56.3535 C   0  0  2  0  0  0  0  0  0  0  0  0
   36.3545   32.2299   54.0383 N   0  0  0  0  0  0  0  0  0  0  0  0
   38.4012   36.9716   57.4505 N   0  0  0  0  0  0  0  0  0  0  0  0
   36.0174   32.3743   55.2511 C   0  0  0  0  0  0  0  0  0  0  0  0
   37.6541   36.7914   58.6803 C   0  0  0  0  0  0  0  0  0  0  0  0
   37.3754   35.6251   59.1774 O   0  0  0  0  0  0  0  0  0  0  0  0
   39.2530   37.8834   57.1650 C   0  0  0  0  0  0  0  0  0  0  0  0
   37.3497   37.8064   59.4932 O   0  0  0  0  0  0  0  0  0  0  0  0
  1  2  1  0
  1  3  1  0
  4  2  1  6
  5  3  1  1
  6  4  1  6
  5  6  1  0
  6  7  1  0
  5  8  1  0
  7  9  1  0
  7 10  1  1
 10 11  1  0
  9 12  1  0
  4 13  1  0
 11 13  1  0
  8 14  1  6
  8 15  1  0
  9 16  1  0
 16 14  1  6
  3 17  1  0
 16 18  1  0
 15 19  1  0
 17 19  1  0
 18 20  1  0
 20 21  1  0
 12 22  1  0
 18 22  1  0
 20 23  2  0
M  END
$$$$
86
     RDKit          3D

 23 27  0  0  0  0  0  0  0  0999 V2000
   35.0329   30.9210   53.0522 O   0  0  0  0  0  0  0  0  0  0  0  0
   35.9482   31.6807   53.4067 C   0  0  0  0  0  0  0  0  0  0  0  0
   36.9207   32.0950   52.5101 C   0  0  0  0  0  0  0  0  0  0  0  0
   35.8187   32.4898   54.6177 N   0  0  0  0  0  0  0  0  0  0  0  0
   37.8452   33.1267   52.8266 C   0  0  1  0  0  0  0  0  0  0  0  0
   34.9028   32.1932   55.5570 O   0  0  0  0  0  0  0  0  0  0  0  0
   36.7683   33.5064   54.9204 C   0  0  0  0  0  0  0  0  0  0  0  0
   38.8569   33.5644   51.8471 C   0  0  0  0  0  0  0  0  0  0  0  0
   37.7359   33.8710   53.9920 C   0  0  2  0  0  0  0  0  0  0  0  0
   36.5894   34.0579   56.2360 C   0  0  0  0  0  0  0  0  0  0  0  0
   38.5703   35.0365   54.2057 C   0  0  2  0  0  0  0  0  0  0  0  0
   38.4889   35.8134   55.4069 C   0  0  0  0  0  0  0  0  0  0  0  0
   37.4645   35.2754   56.3913 C   0  0  0  0  0  0  0  0  0  0  0  0
   37.3415   36.1245   57.8152 C   0  0  0  0  0  0  0  0  0  0  0  0
   39.4333   34.8286   52.0382 C   0  0  1  0  0  0  0  0  0  0  0  0
   36.5059   35.6905   58.6411 C   0  0  0  0  0  0  0  0  0  0  0  0
   39.3681   35.5236   53.2456 C   0  0  1  0  0  0  0  0  0  0  0  0
   40.3868   35.2776   50.9488 N   0  0  0  0  0  0  0  0  0  0  0  0
   35.8128   34.3794   58.5623 C   0  0  0  0  0  0  0  0  0  0  0  0
   35.7485   33.6176   57.3147 C   0  0  0  0  0  0  0  0  0  0  0  0
   40.5433   36.5869   50.8533 N   0  0  0  0  0  0  0  0  0  0  0  0
   40.4040   37.2644   52.0296 C   0  0  0  0  0  0  0  0  0  0  0  0
   39.7174   36.8312   53.1281 N   0  0  0  0  0  0  0  0  0  0  0  0
  1  2  2  0
  2  3  1  0
  2  4  1  0
  5  3  1  6
  4  6  1  0
  4  7  1  0
  5  8  1  0
  5  9  1  0
  9  7  1  6
  7 10  1  0
  9 11  1  0
 11 12  1  6
 10 13  1  0
 12 13  1  0
 13 14  1  0
 15  8  1  1
 14 16  1  0
 11 17  1  0
 15 17  1  0
 15 18  1  0
 16 19  1  0
 10 20  1  0
 19 20  1  0
 18 21  1  0
 21 22  1  0
 17 23  1  6
 22 23  1  0
M  END
$$$$
87
     RDKit          3D

 23 27  0  0  0  0  0  0  0  0999 V2000
   35.0329   30.9210   53.0522 O   0  0  0  0  0  0  0  0  0  0  0  0
   35.9482   31.6807   53.4067 C   0  0  0  0  0  0  0  0  0  0  0  0
   36.9207   32.0950   52.5101 C   0  0  0  0  0  0  0  0  0  0  0  0
   35.8187   32.4898   54.6177 N   0  0  0  0  0  0  0  0  0  0  0  0
   37.8452   33.1267   52.8266 C   0  0  1  0  0  0  0  0  0  0  0  0
   34.9028   32.1932   55.5570 O   0  0  0  0  0  0  0  0  0  0  0  0
   36.7683   33.5064   54.9204 C   0  0  0  0  0  0  0  0  0  0  0  0
   38.8569   33.5644   51.8471 C   0  0  0  0  0  0  0  0  0  0  0  0
   37.7359   33.8710   53.9920 C   0  0  2  0  0  0  0  0  0  0  0  0
   36.5894   34.0579   56.2360 C   0  0  0  0  0  0  0  0  0  0  0  0
   38.5703   35.0365   54.2057 C   0  0  2  0  0  0  0  0  0  0  0  0
   38.4889   35.8134   55.4069 C   0  0  0  0  0  0  0  0  0  0  0  0
   37.4645   35.2754   56.3913 C   0  0  0  0  0  0  0  0  0  0  0  0
   37.3415   36.1245   57.8152 C   0  0  0  0  0  0  0  0  0  0  0  0
   39.4333   34.8286   52.0382 C   0  0  1  0  0  0  0  0  0  0  0  0
   36.5059   35.6905   58.6411 C   0  0  0  0  0  0  0  0  0  0  0  0
   39.3681   35.5236   53.2456 C   0  0  1  0  0  0  0  0  0  0  0  0
   40.3868   35.2776   50.9488 N   0  0  0  0  0  0  0  0  0  0  0  0
   35.8128   34.3794   58.5623 C   0  0  0  0  0  0  0  0  0  0  0  0
   35.7485   33.6176   57.3147 C   0  0  0  0  0  0  0  0  0  0  0  0
   40.5433   36.5869   50.8533 N   0  0  0  0  0  0  0  0  0  0  0  0
   40.4040   37.2644   52.0296 C   0  0  0  0  0  0  0  0  0  0  0  0
   39.9153   36.8767   53.2266 C   0  0  0  0  0  0  0  0  0  0  0  0
  1  2  2  0
  2  3  1  0
  2  4  1  0
  5  3  1  6
  4  6  1  0
  4  7  1  0
  5  8  1  0
  5  9  1  0
  9  7  1  6
  7 10  1  0
  9 11  1  0
 11 12  1  6
 10 13  1  0
 12 13  1  0
 13 14  1  0
 15  8  1  1
 14 16  1  0
 11 17  1  0
 15 17  1  0
 15 18  1  0
 16 19  1  0
 10 20  1  0
 19 20  1  0
 18 21  1  0
 21 22  1  0
 17 23  1  6
 22 23  1  0
M  END
$$$$
88
     RDKit          3D

 23 26  0  0  0  0  0  0  0  0999 V2000
   40.1538   35.2600   51.0802 C   0  0  0  0  0  0  0  0  0  0  0  0
   39.2961   34.3037   51.3555 N   0  0  0  0  0  0  0  0  0  0  0  0
   40.2238   36.3171   51.9812 C   0  0  2  0  0  0  0  0  0  0  0  0
   39.3290   36.2201   53.0969 C   0  0  1  0  0  0  0  0  0  0  0  0
   38.5968   34.5029   52.6614 C   0  0  1  0  0  0  0  0  0  0  0  0
   37.7899   33.2067   52.8417 C   0  0  1  0  0  0  0  0  0  0  0  0
   38.7813   35.3657   53.4163 N   0  0  0  0  0  0  0  0  0  0  0  0
   39.6648   37.5459   53.9991 C   0  0  2  0  0  0  0  0  0  0  0  0
   39.1296   37.8041   55.2554 C   0  0  0  0  0  0  0  0  0  0  0  0
   39.3765   39.0036   55.9032 C   0  0  0  0  0  0  0  0  0  0  0  0
   37.5919   32.7977   54.2148 C   0  0  1  0  0  0  0  0  0  0  0  0
   37.1959   32.4177   51.9981 C   0  0  0  0  0  0  0  0  0  0  0  0
   38.1270   33.6040   55.3288 O   0  0  0  0  0  0  0  0  0  0  0  0
   38.9455   39.1832   57.1991 C   0  0  0  0  0  0  0  0  0  0  0  0
   36.6474   31.9063   54.5842 C   0  0  0  0  0  0  0  0  0  0  0  0
   38.4396   38.0468   57.8891 C   0  0  0  0  0  0  0  0  0  0  0  0
   38.1828   37.0090   57.2595 C   0  0  0  0  0  0  0  0  0  0  0  0
   38.4925   36.7865   56.0152 C   0  0  0  0  0  0  0  0  0  0  0  0
   36.1562   31.4814   52.4557 C   0  0  1  0  0  0  0  0  0  0  0  0
   35.4351   30.7546   51.4090 O   0  0  0  0  0  0  0  0  0  0  0  0
   35.9054   31.2207   53.6952 C   0  0  0  0  0  0  0  0  0  0  0  0
   40.3821   38.5046   53.2839 C   0  0  0  0  0  0  0  0  0  0  0  0
   40.9264   37.7123   51.8970 N   0  0  0  0  0  0  0  0  0  0  0  0
  1  2  1  0
  3  1  1  6
  3  4  1  0
  5  2  1  1
  5  6  1  0
  4  7  1  1
  5  7  1  0
  4  8  1  0
  8  9  1  6
  9 10  1  0
  6 11  1  0
  6 12  1  1
 11 13  1  1
 10 14  1  0
 11 15  1  0
 14 16  1  0
 16 17  1  0
  9 18  1  0
 17 18  1  0
 12 19  1  0
 19 20  1  6
 15 21  1  0
 19 21  1  0
  8 22  1  0
  3 23  1  0
 22 23  1  0
M  END
$$$$
89
     RDKit          3D

 23 26  0  0  0  0  0  0  0  0999 V2000
   39.5048   35.0938   50.8770 C   0  0  0  0  0  0  0  0  0  0  0  0
   39.8244   36.1500   51.7166 C   0  0  1  0  0  0  0  0  0  0  0  0
   40.4425   37.3096   51.3666 N   0  0  0  0  0  0  0  0  0  0  0  0
   39.2062   35.7816   53.0471 C   0  0  1  0  0  0  0  0  0  0  0  0
   40.3965   38.2693   52.3101 C   0  0  0  0  0  0  0  0  0  0  0  0
   38.9662   33.9388   51.4026 C   0  0  0  0  0  0  0  0  0  0  0  0
   39.9134   38.0926   53.6707 C   0  0  0  0  0  0  0  0  0  0  0  0
   38.7527   34.6977   53.2930 N   0  0  0  0  0  0  0  0  0  0  0  0
   39.3585   36.8802   54.0544 C   0  0  1  0  0  0  0  0  0  0  0  0
   38.8565   36.6702   55.4210 C   0  0  0  0  0  0  0  0  0  0  0  0
   38.5842   33.8043   52.4092 C   0  0  2  0  0  0  0  0  0  0  0  0
   37.9107   32.4064   52.9015 C   0  0  0  0  0  0  0  0  0  0  0  0
   36.6155   32.3325   52.6406 C   0  0  0  0  0  0  0  0  0  0  0  0
   35.9338   31.1929   53.4761 C   0  0  0  0  0  0  0  0  0  0  0  0
   35.7208   31.6755   54.8531 C   0  0  0  0  0  0  0  0  0  0  0  0
   35.5400   33.0214   55.0810 O   0  0  0  0  0  0  0  0  0  0  0  0
   36.4537   33.7908   55.9866 C   0  0  0  0  0  0  0  0  0  0  0  0
   37.0953   34.7798   55.5864 C   0  0  1  0  0  0  0  0  0  0  0  0
   36.3548   33.2455   57.1569 O   0  0  0  0  0  0  0  0  0  0  0  0
   37.0654   35.9948   56.3016 C   0  0  1  0  0  0  0  0  0  0  0  0
   37.8456   36.6875   56.1858 N   0  0  0  0  0  0  0  0  0  0  0  0
   35.7577   36.1738   56.8797 N   0  0  0  0  0  0  0  0  0  0  0  0
   38.2257   34.2316   54.7329 C   0  0  0  0  0  0  0  0  0  0  0  0
  2  1  1  6
  2  3  1  0
  2  4  1  0
  3  5  1  0
  1  6  1  0
  5  7  1  0
  4  8  1  1
  4  9  1  0
  9  7  1  6
  9 10  1  0
 11  6  1  1
  8 11  1  0
 11 12  1  0
 12 13  1  0
 13 14  1  0
 14 15  1  0
 15 16  1  0
 16 17  1  0
 18 17  1  1
 17 19  2  0
 18 20  1  0
 10 21  1  0
 20 21  1  0
 20 22  1  6
  8 23  1  0
 18 23  1  0
M  END
$$$$
9
     RDKit          3D

 17 19  0  0  0  0  0  0  0  0999 V2000
   40.5234   35.9614   51.1397 N   0  0  0  0  0  0  0  0  0  0  0  0
   39.6713   35.0294   51.4226 C   0  0  2  0  0  0  0  0  0  0  0  0
   39.1255   34.8170   52.3649 N   0  0  0  0  0  0  0  0  0  0  0  0
   39.7477   33.9833   50.3577 N   0  0  0  0  0  0  0  0  0  0  0  0
   39.1439   35.7832   53.4371 C   0  0  2  0  0  0  0  0  0  0  0  0
   40.4793   37.0412   52.1101 C   0  0  0  0  0  0  0  0  0  0  0  0
   38.3969   35.6115   54.6611 N   0  0  0  0  0  0  0  0  0  0  0  0
   39.7282   36.9710   53.4130 C   0  0  2  0  0  0  0  0  0  0  0  0
   38.6098   36.7898   55.4215 C   0  0  0  0  0  0  0  0  0  0  0  0
   37.4563   34.7191   54.9670 C   0  0  1  0  0  0  0  0  0  0  0  0
   39.4806   37.5880   54.6000 N   0  0  0  0  0  0  0  0  0  0  0  0
   37.5620   33.3908   55.0996 C   0  0  1  0  0  0  0  0  0  0  0  0
   36.2062   35.1087   55.6289 O   0  0  0  0  0  0  0  0  0  0  0  0
   36.3705   32.7137   55.5389 C   0  0  2  0  0  0  0  0  0  0  0  0
   35.9897   31.4640   55.3423 O   0  0  0  0  0  0  0  0  0  0  0  0
   35.3406   33.8149   55.3717 C   0  0  0  0  0  0  0  0  0  0  0  0
   37.8151   32.8245   53.7122 O   0  0  0  0  0  0  0  0  0  0  0  0
  1  2  1  0
  2  3  1  0
  2  4  1  1
  5  3  1  6
  1  6  1  0
  5  7  1  0
  5  8  1  0
  8  6  1  1
  7  9  1  0
 10  7  1  1
  8 11  1  0
  9 11  1  0
 10 12  1  0
 10 13  1  0
 12 14  1  0
 14 15  1  6
 13 16  1  0
 14 16  1  0
 12 17  1  6
M  END
$$$$
90
     RDKit          3D

 24 28  0  0  0  0  0  0  0  0999 V2000
   38.3536   33.1601   51.7483 C   0  0  0  0  0  0  0  0  0  0  0  0
   39.2535   34.1777   52.0521 C   0  0  1  0  0  0  0  0  0  0  0  0
   40.1160   34.7054   51.0231 N   0  0  0  0  0  0  0  0  0  0  0  0
   40.6041   35.8823   51.2420 N   0  0  0  0  0  0  0  0  0  0  0  0
   39.0685   35.2741   53.0264 C   0  0  1  0  0  0  0  0  0  0  0  0
   38.2836   35.2472   54.0764 C   0  0  2  0  0  0  0  0  0  0  0  0
   40.0126   36.2448   52.5333 C   0  0  0  0  0  0  0  0  0  0  0  0
   37.2907   32.6800   52.5876 C   0  0  0  0  0  0  0  0  0  0  0  0
   36.7305   33.5446   53.6577 C   0  0  2  0  0  0  0  0  0  0  0  0
   37.4933   34.5330   54.3869 C   0  0  2  0  0  0  0  0  0  0  0  0
   40.4270   37.5184   53.2553 C   0  0  0  0  0  0  0  0  0  0  0  0
   36.7121   34.6518   55.8514 C   0  0  2  0  0  0  0  0  0  0  0  0
   35.5311   32.8422   54.2461 O   0  0  0  0  0  0  0  0  0  0  0  0
   37.0998   35.8643   56.5528 C   0  0  0  0  0  0  0  0  0  0  0  0
   36.7110   36.0572   57.8946 C   0  0  0  0  0  0  0  0  0  0  0  0
   37.0727   37.2854   58.4945 C   0  0  0  0  0  0  0  0  0  0  0  0
   35.8816   33.7709   56.5349 C   0  0  0  0  0  0  0  0  0  0  0  0
   37.9696   38.0957   57.7409 C   0  0  0  0  0  0  0  0  0  0  0  0
   38.2894   36.4907   55.0095 C   0  0  0  0  0  0  0  0  0  0  0  0
   35.5587   32.0669   55.3246 C   0  0  0  0  0  0  0  0  0  0  0  0
   37.8735   36.8805   56.0768 C   0  0  2  0  0  0  0  0  0  0  0  0
   35.2495   32.6989   56.4422 C   0  0  0  0  0  0  0  0  0  0  0  0
   38.2829   37.8961   56.7262 N   0  0  0  0  0  0  0  0  0  0  0  0
   36.0511   30.8110   54.9026 C   0  0  0  0  0  0  0  0  0  0  0  0
  2  1  1  6
  2  3  1  0
  3  4  1  0
  2  5  1  0
  5  6  1  0
  4  7  1  0
  5  7  1  1
  1  8  1  0
  9  8  1  1
  6 10  1  0
 10  9  1  6
  7 11  1  0
 10 12  1  0
  9 13  1  0
 12 14  1  0
 14 15  1  0
 15 16  1  0
 12 17  1  1
 16 18  1  0
  6 19  1  6
 13 20  1  0
 14 21  1  0
 21 19  1  1
 17 22  1  0
 20 22  1  0
 18 23  1  0
 21 23  1  0
 20 24  2  0
M  END
$$$$
91
     RDKit          3D

 24 28  0  0  0  0  0  0  0  0999 V2000
   35.0329   30.9210   53.0522 O   0  0  0  0  0  0  0  0  0  0  0  0
   35.9482   31.6807   53.4067 C   0  0  0  0  0  0  0  0  0  0  0  0
   36.9207   32.0950   52.5101 C   0  0  0  0  0  0  0  0  0  0  0  0
   35.8187   32.4898   54.6177 N   0  0  0  0  0  0  0  0  0  0  0  0
   37.8452   33.1267   52.8266 C   0  0  1  0  0  0  0  0  0  0  0  0
   34.9028   32.1932   55.5570 O   0  0  0  0  0  0  0  0  0  0  0  0
   36.7683   33.5064   54.9204 C   0  0  0  0  0  0  0  0  0  0  0  0
   38.8569   33.5644   51.8471 C   0  0  1  0  0  0  0  0  0  0  0  0
   37.7359   33.8710   53.9920 C   0  0  2  0  0  0  0  0  0  0  0  0
   36.5894   34.0579   56.2360 C   0  0  0  0  0  0  0  0  0  0  0  0
   38.5703   35.0365   54.2057 C   0  0  2  0  0  0  0  0  0  0  0  0
   38.4889   35.8134   55.4069 C   0  0  1  0  0  0  0  0  0  0  0  0
   37.4645   35.2754   56.3913 C   0  0  0  0  0  0  0  0  0  0  0  0
   37.3415   36.1245   57.8152 C   0  0  0  0  0  0  0  0  0  0  0  0
   39.3108   36.8830   55.6741 C   0  0  0  0  0  0  0  0  0  0  0  0
   35.8158   33.7400   57.3655 C   0  0  0  0  0  0  0  0  0  0  0  0
   39.3762   35.7665   53.4025 C   0  0  2  0  0  0  0  0  0  0  0  0
   35.7306   34.4175   58.4772 C   0  0  0  0  0  0  0  0  0  0  0  0
   39.0600   32.9953   50.6831 N   0  0  0  0  0  0  0  0  0  0  0  0
   39.5726   35.1611   51.9791 C   0  0  1  0  0  0  0  0  0  0  0  0
   40.4240   35.6056   50.9470 N   0  0  0  0  0  0  0  0  0  0  0  0
   36.5120   35.5776   58.6328 C   0  0  0  0  0  0  0  0  0  0  0  0
   40.1079   36.8238   53.5020 C   0  0  0  0  0  0  0  0  0  0  0  0
   40.1262   37.3697   54.6969 C   0  0  0  0  0  0  0  0  0  0  0  0
  1  2  2  0
  2  3  1  0
  2  4  1  0
  5  3  1  6
  4  6  1  0
  4  7  1  0
  5  8  1  0
  5  9  1  0
  9  7  1  6
  7 10  1  0
  9 11  1  0
 11 12  1  6
 10 13  1  0
 12 13  1  0
 13 14  1  0
 12 15  1  1
 10 16  1  0
 11 17  1  0
 16 18  1  0
  8 19  1  6
  8 20  1  0
 17 20  1  0
 20 21  1  1
 14 22  1  0
 18 22  1  0
 17 23  1  1
 15 24  1  0
 23 24  1  0
M  END
$$$$
92
     RDKit          3D

 24 28  0  0  0  0  0  0  0  0999 V2000
   35.0329   30.9210   53.0522 O   0  0  0  0  0  0  0  0  0  0  0  0
   35.9482   31.6807   53.4067 C   0  0  0  0  0  0  0  0  0  0  0  0
   36.9207   32.0950   52.5101 C   0  0  0  0  0  0  0  0  0  0  0  0
   35.8187   32.4898   54.6177 N   0  0  0  0  0  0  0  0  0  0  0  0
   37.8452   33.1267   52.8266 C   0  0  1  0  0  0  0  0  0  0  0  0
   34.9028   32.1932   55.5570 O   0  0  0  0  0  0  0  0  0  0  0  0
   36.7683   33.5064   54.9204 C   0  0  0  0  0  0  0  0  0  0  0  0
   38.8569   33.5644   51.8471 C   0  0  1  0  0  0  0  0  0  0  0  0
   37.7359   33.8710   53.9920 C   0  0  2  0  0  0  0  0  0  0  0  0
   36.5894   34.0579   56.2360 C   0  0  0  0  0  0  0  0  0  0  0  0
   38.5703   35.0365   54.2057 C   0  0  2  0  0  0  0  0  0  0  0  0
   38.4889   35.8134   55.4069 C   0  0  1  0  0  0  0  0  0  0  0  0
   37.4645   35.2754   56.3913 C   0  0  0  0  0  0  0  0  0  0  0  0
   37.3415   36.1245   57.8152 C   0  0  0  0  0  0  0  0  0  0  0  0
   39.3108   36.8830   55.6741 C   0  0  0  0  0  0  0  0  0  0  0  0
   35.8158   33.7400   57.3655 C   0  0  0  0  0  0  0  0  0  0  0  0
   39.3762   35.7665   53.4025 C   0  0  0  0  0  0  0  0  0  0  0  0
   35.7306   34.4175   58.4772 C   0  0  0  0  0  0  0  0  0  0  0  0
   39.0600   32.9953   50.6831 N   0  0  0  0  0  0  0  0  0  0  0  0
   39.3403   34.9938   51.9796 C   0  0  1  0  0  0  0  0  0  0  0  0
   38.0865   37.2279   57.9051 O   0  0  0  0  0  0  0  0  0  0  0  0
   39.1339   37.5428   56.9656 C   0  0  0  0  0  0  0  0  0  0  0  0
   40.2087   35.2144   50.8671 N   0  0  0  0  0  0  0  0  0  0  0  0
   36.5022   35.6132   58.6562 C   0  0  0  0  0  0  0  0  0  0  0  0
  1  2  2  0
  2  3  1  0
  2  4  1  0
  5  3  1  6
  4  6  1  0
  4  7  1  0
  5  8  1  0
  5  9  1  0
  9  7  1  6
  7 10  1  0
  9 11  1  0
 11 12  1  0
 10 13  1  0
 12 13  1  0
 13 14  1  0
 12 15  1  1
 10 16  1  0
 11 17  1  6
 16 18  1  0
  8 19  1  6
  8 20  1  0
 17 20  1  0
 14 21  1  0
 15 22  1  0
 21 22  1  0
 20 23  1  1
 14 24  1  0
 18 24  1  0
M  END
$$$$
93
     RDKit          3D

 24 28  0  0  0  0  0  0  0  0999 V2000
   35.6310   31.7763   54.9744 C   0  0  0  0  0  0  0  0  0  0  0  0
   36.2654   32.7755   55.3225 C   0  0  0  0  0  0  0  0  0  0  0  0
   35.5410   31.3666   53.6325 C   0  0  1  0  0  0  0  0  0  0  0  0
   36.3462   31.9929   52.7154 C   0  0  0  0  0  0  0  0  0  0  0  0
   34.6733   30.1126   53.1437 C   0  0  0  0  0  0  0  0  0  0  0  0
   37.2139   33.0537   53.1453 C   0  0  0  0  0  0  0  0  0  0  0  0
   37.1349   33.4703   54.4482 C   0  0  1  0  0  0  0  0  0  0  0  0
   38.2135   33.7757   52.1743 C   0  0  2  0  0  0  0  0  0  0  0  0
   37.9335   34.6378   54.6638 C   0  0  1  0  0  0  0  0  0  0  0  0
   36.1312   33.2464   56.7201 C   0  0  2  0  0  0  0  0  0  0  0  0
   38.3718   33.2868   50.8437 N   0  0  0  0  0  0  0  0  0  0  0  0
   37.9478   35.2476   56.0252 C   0  0  1  0  0  0  0  0  0  0  0  0
   38.5456   36.3158   56.4713 C   0  0  0  0  0  0  0  0  0  0  0  0
   39.4167   33.8673   50.2789 C   0  0  0  0  0  0  0  0  0  0  0  0
   35.4261   32.8292   57.7046 O   0  0  0  0  0  0  0  0  0  0  0  0
   36.7823   34.7476   56.8771 C   0  0  2  0  0  0  0  0  0  0  0  0
   36.3192   35.4690   58.1645 C   0  0  0  0  0  0  0  0  0  0  0  0
   38.9856   34.8472   52.6665 C   0  0  1  0  0  0  0  0  0  0  0  0
   39.7885   35.0048   51.2868 N   0  0  0  0  0  0  0  0  0  0  0  0
   38.2148   37.0860   57.5400 C   0  0  0  0  0  0  0  0  0  0  0  0
   39.0196   35.5423   53.7457 C   0  0  0  0  0  0  0  0  0  0  0  0
   40.7626   35.9966   51.0915 N   0  0  0  0  0  0  0  0  0  0  0  0
   37.1267   36.6487   58.3385 C   0  0  0  0  0  0  0  0  0  0  0  0
   40.9060   37.1288   52.0514 O   0  0  0  0  0  0  0  0  0  0  0  0
  1  2  1  0
  1  3  1  0
  3  4  1  0
  3  5  1  1
  4  6  1  0
  7  2  1  6
  6  7  1  0
  6  8  1  0
  7  9  1  0
  2 10  1  0
  8 11  1  1
  9 12  1  0
 12 13  1  6
 11 14  1  0
 10 15  1  6
 10 16  1  0
 12 16  1  0
 16 17  1  1
  8 18  1  0
 14 19  1  0
 18 19  1  0
 13 20  1  0
  9 21  1  1
 18 21  1  6
 19 22  1  0
 17 23  1  0
 20 23  1  0
 22 24  1  0
M  END
$$$$
94
     RDKit          3D

 24 28  0  0  0  0  0  0  0  0999 V2000
   35.0329   30.9210   53.0522 O   0  0  0  0  0  0  0  0  0  0  0  0
   35.9482   31.6807   53.4067 C   0  0  0  0  0  0  0  0  0  0  0  0
   36.9207   32.0950   52.5101 C   0  0  0  0  0  0  0  0  0  0  0  0
   35.8187   32.4898   54.6177 N   0  0  0  0  0  0  0  0  0  0  0  0
   37.8452   33.1267   52.8266 C   0  0  1  0  0  0  0  0  0  0  0  0
   34.9028   32.1932   55.5570 O   0  0  0  0  0  0  0  0  0  0  0  0
   36.7683   33.5064   54.9204 C   0  0  0  0  0  0  0  0  0  0  0  0
   38.8569   33.5644   51.8471 C   0  0  1  0  0  0  0  0  0  0  0  0
   37.7359   33.8710   53.9920 C   0  0  2  0  0  0  0  0  0  0  0  0
   36.5894   34.0579   56.2360 C   0  0  0  0  0  0  0  0  0  0  0  0
   38.5703   35.0365   54.2057 C   0  0  2  0  0  0  0  0  0  0  0  0
   38.4889   35.8134   55.4069 C   0  0  1  0  0  0  0  0  0  0  0  0
   37.4645   35.2754   56.3913 C   0  0  0  0  0  0  0  0  0  0  0  0
   37.3415   36.1245   57.8152 C   0  0  1  0  0  0  0  0  0  0  0  0
   39.3108   36.8830   55.6741 C   0  0  0  0  0  0  0  0  0  0  0  0
   35.8158   33.7400   57.3655 C   0  0  0  0  0  0  0  0  0  0  0  0
   39.3762   35.7665   53.4025 C   0  0  2  0  0  0  0  0  0  0  0  0
   35.7306   34.4175   58.4772 C   0  0  0  0  0  0  0  0  0  0  0  0
   39.0600   32.9953   50.6831 N   0  0  0  0  0  0  0  0  0  0  0  0
   39.5726   35.1611   51.9791 C   0  0  0  0  0  0  0  0  0  0  0  0
   39.9429   36.8080   53.9446 C   0  0  0  0  0  0  0  0  0  0  0  0
   38.0048   37.2832   57.8762 O   0  0  0  0  0  0  0  0  0  0  0  0
   36.5037   35.5963   58.6132 C   0  0  0  0  0  0  0  0  0  0  0  0
   40.3377   35.4669   51.1149 O   0  0  0  0  0  0  0  0  0  0  0  0
  1  2  2  0
  2  3  1  0
  2  4  1  0
  5  3  1  6
  4  6  1  0
  4  7  1  0
  5  8  1  0
  5  9  1  0
  9  7  1  6
  7 10  1  0
  9 11  1  0
 11 12  1  6
 10 13  1  0
 12 13  1  0
 13 14  1  0
 12 15  1  1
 10 16  1  0
 11 17  1  0
 16 18  1  0
  8 19  1  6
  8 20  1  0
 17 20  1  0
 15 21  1  0
 17 21  1  1
 14 22  1  6
 14 23  1  0
 18 23  1  0
 20 24  2  0
M  END
$$$$
95
     RDKit          3D

 24 28  0  0  0  0  0  0  0  0999 V2000
   34.9931   30.8804   53.4429 C   0  0  0  0  0  0  0  0  0  0  0  0
   34.6769   31.1653   54.5850 C   0  0  0  0  0  0  0  0  0  0  0  0
   35.7133   32.0808   55.0873 C   0  0  2  0  0  0  0  0  0  0  0  0
   35.8095   32.7196   56.3709 N   0  0  0  0  0  0  0  0  0  0  0  0
   36.6380   33.6939   56.6293 C   0  0  1  0  0  0  0  0  0  0  0  0
   36.4479   32.8370   54.1784 N   0  0  0  0  0  0  0  0  0  0  0  0
   35.7289   31.5315   52.5674 C   0  0  0  0  0  0  0  0  0  0  0  0
   37.2741   33.8631   54.7791 C   0  0  0  0  0  0  0  0  0  0  0  0
   37.3515   34.2855   55.9069 C   0  0  0  0  0  0  0  0  0  0  0  0
   38.2207   34.5109   53.7139 C   0  0  0  0  0  0  0  0  0  0  0  0
   38.3359   33.9065   52.4704 C   0  0  2  0  0  0  0  0  0  0  0  0
   36.5429   32.4220   52.9341 C   0  0  0  0  0  0  0  0  0  0  0  0
   39.2252   34.5281   51.4408 C   0  0  0  0  0  0  0  0  0  0  0  0
   39.0027   35.7250   54.0594 C   0  0  0  0  0  0  0  0  0  0  0  0
   39.8536   36.2648   53.0013 C   0  0  0  0  0  0  0  0  0  0  0  0
   39.9021   35.6785   51.7982 C   0  0  0  0  0  0  0  0  0  0  0  0
   37.5155   32.8580   52.0214 N   0  0  0  0  0  0  0  0  0  0  0  0
   40.7261   36.2803   50.8725 O   0  0  0  0  0  0  0  0  0  0  0  0
   36.4247   34.1763   58.1384 N   0  0  0  0  0  0  0  0  0  0  0  0
   36.4533   35.5024   58.3167 C   0  0  0  0  0  0  0  0  0  0  0  0
   36.4569   33.4663   59.1749 C   0  0  0  0  0  0  0  0  0  0  0  0
   35.8490   35.8357   59.4216 N   0  0  0  0  0  0  0  0  0  0  0  0
   35.8384   34.4696   60.1460 C   0  0  0  0  0  0  0  0  0  0  0  0
   36.6503   32.3553   59.5353 O   0  0  0  0  0  0  0  0  0  0  0  0
  1  2  1  0
  3  2  1  6
  3  4  1  0
  4  5  1  0
  3  6  1  0
  1  7  1  0
  6  8  1  0
  5  9  1  0
  8  9  1  0
  8 10  1  0
 10 11  1  0
  6 12  1  0
  7 12  1  0
 11 13  1  6
 10 14  1  0
 14 15  1  0
 13 16  1  0
 15 16  1  0
 11 17  1  0
 12 17  1  0
 16 18  1  0
  5 19  1  6
 19 20  1  0
 19 21  1  0
 20 22  1  0
 21 23  1  0
 22 23  1  0
 21 24  2  0
M  END
$$$$
96
     RDKit          3D

 24 28  0  0  0  0  0  0  0  0999 V2000
   35.0329   30.9210   53.0522 O   0  0  0  0  0  0  0  0  0  0  0  0
   35.9482   31.6807   53.4067 C   0  0  0  0  0  0  0  0  0  0  0  0
   36.9207   32.0950   52.5101 C   0  0  0  0  0  0  0  0  0  0  0  0
   35.8187   32.4898   54.6177 N   0  0  0  0  0  0  0  0  0  0  0  0
   37.8452   33.1267   52.8266 C   0  0  1  0  0  0  0  0  0  0  0  0
   34.9028   32.1932   55.5570 O   0  0  0  0  0  0  0  0  0  0  0  0
   36.7683   33.5064   54.9204 C   0  0  1  0  0  0  0  0  0  0  0  0
   38.8569   33.5644   51.8471 C   0  0  0  0  0  0  0  0  0  0  0  0
   37.7359   33.8710   53.9920 C   0  0  2  0  0  0  0  0  0  0  0  0
   36.5371   34.2639   56.0322 N   0  0  0  0  0  0  0  0  0  0  0  0
   38.4133   35.1960   54.0502 C   0  0  2  0  0  0  0  0  0  0  0  0
   39.3760   35.4917   53.1362 C   0  0  0  0  0  0  0  0  0  0  0  0
   39.4916   34.8336   51.9578 C   0  0  1  0  0  0  0  0  0  0  0  0
   40.3961   35.2169   50.8702 N   0  0  0  0  0  0  0  0  0  0  0  0
   37.0989   35.4909   56.1729 C   0  0  1  0  0  0  0  0  0  0  0  0
   36.9159   36.1629   57.3642 C   0  0  2  0  0  0  0  0  0  0  0  0
   38.1146   35.8148   55.3593 C   0  0  2  0  0  0  0  0  0  0  0  0
   35.8692   35.8755   58.3131 C   0  0  0  0  0  0  0  0  0  0  0  0
   35.4659   36.8994   59.2361 C   0  0  0  0  0  0  0  0  0  0  0  0
   37.7049   37.3264   57.7074 C   0  0  0  0  0  0  0  0  0  0  0  0
   38.8219   37.7447   57.0482 C   0  0  0  0  0  0  0  0  0  0  0  0
   38.9453   37.0824   55.6438 C   0  0  0  0  0  0  0  0  0  0  0  0
   36.3602   37.9096   59.5631 C   0  0  0  0  0  0  0  0  0  0  0  0
   37.3770   38.1781   58.7570 C   0  0  0  0  0  0  0  0  0  0  0  0
  1  2  2  0
  2  3  1  0
  2  4  1  0
  5  3  1  6
  4  6  1  0
  4  7  1  0
  5  8  1  0
  9  5  1  6
  7  9  1  0
  7 10  1  6
  9 11  1  0
 11 12  1  1
  8 13  1  0
 12 13  1  0
 13 14  1  1
 15 10  1  1
 15 16  1  0
 11 17  1  0
 15 17  1  0
 16 18  1  6
 18 19  1  0
 16 20  1  0
 20 21  1  0
 17 22  1  6
 21 22  1  0
 19 23  1  0
 20 24  1  0
 23 24  1  0
M  END
$$$$
97
     RDKit          3D

 24 28  0  0  0  0  0  0  0  0999 V2000
   38.3536   33.1601   51.7483 C   0  0  0  0  0  0  0  0  0  0  0  0
   39.2535   34.1777   52.0521 C   0  0  1  0  0  0  0  0  0  0  0  0
   40.1160   34.7054   51.0231 N   0  0  0  0  0  0  0  0  0  0  0  0
   40.6041   35.8823   51.2420 N   0  0  0  0  0  0  0  0  0  0  0  0
   39.0685   35.2741   53.0264 C   0  0  1  0  0  0  0  0  0  0  0  0
   38.2836   35.2472   54.0764 C   0  0  2  0  0  0  0  0  0  0  0  0
   40.0126   36.2448   52.5333 C   0  0  0  0  0  0  0  0  0  0  0  0
   37.2907   32.6800   52.5876 C   0  0  0  0  0  0  0  0  0  0  0  0
   36.7305   33.5446   53.6577 C   0  0  2  0  0  0  0  0  0  0  0  0
   37.4933   34.5330   54.3869 C   0  0  2  0  0  0  0  0  0  0  0  0
   40.4270   37.5184   53.2553 C   0  0  0  0  0  0  0  0  0  0  0  0
   36.7121   34.6518   55.8514 C   0  0  2  0  0  0  0  0  0  0  0  0
   35.5311   32.8422   54.2461 O   0  0  0  0  0  0  0  0  0  0  0  0
   37.0998   35.8643   56.5528 C   0  0  1  0  0  0  0  0  0  0  0  0
   36.7110   36.0572   57.8946 C   0  0  0  0  0  0  0  0  0  0  0  0
   37.0727   37.2854   58.4945 C   0  0  0  0  0  0  0  0  0  0  0  0
   35.8816   33.7709   56.5349 C   0  0  0  0  0  0  0  0  0  0  0  0
   37.9696   38.0957   57.7409 C   0  0  0  0  0  0  0  0  0  0  0  0
   38.2894   36.4907   55.0095 C   0  0  0  0  0  0  0  0  0  0  0  0
   35.5587   32.0669   55.3246 C   0  0  0  0  0  0  0  0  0  0  0  0
   37.9013   36.7351   56.1536 C   0  0  0  0  0  0  0  0  0  0  0  0
   35.2558   30.8555   54.9974 O   0  0  0  0  0  0  0  0  0  0  0  0
   38.3779   37.8389   56.6352 N   0  0  0  0  0  0  0  0  0  0  0  0
   35.3324   32.6131   56.4999 C   0  0  0  0  0  0  0  0  0  0  0  0
  2  1  1  6
  2  3  1  0
  3  4  1  0
  2  5  1  0
  5  6  1  0
  4  7  1  0
  5  7  1  1
  1  8  1  0
  9  8  1  1
  6 10  1  0
 10  9  1  6
  7 11  1  0
 10 12  1  0
  9 13  1  0
 12 14  1  0
 14 15  1  1
 15 16  1  0
 12 17  1  1
 16 18  1  0
  6 19  1  6
 13 20  1  0
 14 21  1  0
 19 21  1  0
 20 22  2  0
 18 23  1  0
 21 23  1  0
 17 24  1  0
 20 24  1  0
M  END
$$$$
98
     RDKit          3D

 24 28  0  0  0  0  0  0  0  0999 V2000
   38.3536   33.1601   51.7483 C   0  0  0  0  0  0  0  0  0  0  0  0
   37.3366   33.2412   52.6794 C   0  0  1  0  0  0  0  0  0  0  0  0
   39.1876   34.3246   51.6562 C   0  0  0  0  0  0  0  0  0  0  0  0
   36.6039   32.0052   52.9817 N   0  0  0  0  0  0  0  0  0  0  0  0
   39.0955   35.3046   52.7404 C   0  0  2  0  0  0  0  0  0  0  0  0
   35.8557   31.8832   54.0281 C   0  0  0  0  0  0  0  0  0  0  0  0
   37.4526   34.0501   53.8669 C   0  0  2  0  0  0  0  0  0  0  0  0
   40.2091   34.6383   50.5294 O   0  0  0  0  0  0  0  0  0  0  0  0
   40.0170   36.4520   52.5667 C   0  0  0  0  0  0  0  0  0  0  0  0
   38.3700   35.1457   53.7574 C   0  0  2  0  0  0  0  0  0  0  0  0
   36.0223   32.6200   54.9318 N   0  0  0  0  0  0  0  0  0  0  0  0
   39.9601   37.4746   53.6039 C   0  0  1  0  0  0  0  0  0  0  0  0
   35.0370   30.7882   54.0543 N   0  0  0  0  0  0  0  0  0  0  0  0
   36.9087   33.7198   54.8866 C   0  0  2  0  0  0  0  0  0  0  0  0
   36.7351   34.6896   55.9792 N   0  0  0  0  0  0  0  0  0  0  0  0
   40.7690   38.6644   53.4914 C   0  0  0  0  0  0  0  0  0  0  0  0
   38.9464   37.4795   54.5621 C   0  0  0  0  0  0  0  0  0  0  0  0
   35.9432   34.5394   57.1038 C   0  0  0  0  0  0  0  0  0  0  0  0
   38.2564   36.2067   54.7277 C   0  0  1  0  0  0  0  0  0  0  0  0
   37.2980   36.0677   55.9646 C   0  0  2  0  0  0  0  0  0  0  0  0
   36.0436   35.7785   57.8783 C   0  0  0  0  0  0  0  0  0  0  0  0
   41.0704   39.2086   52.4024 N   0  0  0  0  0  0  0  0  0  0  0  0
   36.9206   36.6764   57.1432 C   0  0  0  0  0  0  0  0  0  0  0  0
   41.4558   38.9832   54.5367 O   0  0  0  0  0  0  0  0  0  0  0  0
  2  1  1  1
  1  3  1  0
  2  4  1  0
  3  5  1  0
  4  6  1  0
  7  2  1  1
  3  8  1  0
  5  9  1  1
 10  5  1  6
  7 10  1  0
  6 11  1  0
  9 12  1  0
  6 13  2  0
  7 14  1  0
 14 11  1  6
 14 15  1  0
 12 16  1  6
 12 17  1  0
 15 18  1  0
 10 19  1  0
 19 17  1  6
 15 20  1  0
 19 20  1  0
 18 21  1  0
 16 22  1  0
 20 23  1  1
 21 23  1  0
 16 24  2  0
M  END
$$$$
99
     RDKit          3D

 24 28  0  0  0  0  0  0  0  0999 V2000
   35.6310   31.7763   54.9744 C   0  0  0  0  0  0  0  0  0  0  0  0
   36.2654   32.7755   55.3225 C   0  0  0  0  0  0  0  0  0  0  0  0
   35.5410   31.3666   53.6325 C   0  0  1  0  0  0  0  0  0  0  0  0
   36.3462   31.9929   52.7154 C   0  0  0  0  0  0  0  0  0  0  0  0
   34.6733   30.1126   53.1437 C   0  0  0  0  0  0  0  0  0  0  0  0
   37.2139   33.0537   53.1453 C   0  0  0  0  0  0  0  0  0  0  0  0
   37.1349   33.4703   54.4482 C   0  0  1  0  0  0  0  0  0  0  0  0
   38.2135   33.7757   52.1743 C   0  0  2  0  0  0  0  0  0  0  0  0
   37.9335   34.6378   54.6638 C   0  0  1  0  0  0  0  0  0  0  0  0
   36.1312   33.2464   56.7201 C   0  0  2  0  0  0  0  0  0  0  0  0
   38.3718   33.2868   50.8437 N   0  0  0  0  0  0  0  0  0  0  0  0
   37.9478   35.2476   56.0252 C   0  0  1  0  0  0  0  0  0  0  0  0
   38.5456   36.3158   56.4713 C   0  0  0  0  0  0  0  0  0  0  0  0
   39.4167   33.8673   50.2789 C   0  0  0  0  0  0  0  0  0  0  0  0
   35.4261   32.8292   57.7046 O   0  0  0  0  0  0  0  0  0  0  0  0
   36.7823   34.7476   56.8771 C   0  0  2  0  0  0  0  0  0  0  0  0
   36.3192   35.4690   58.1645 C   0  0  0  0  0  0  0  0  0  0  0  0
   38.9856   34.8472   52.6665 C   0  0  1  0  0  0  0  0  0  0  0  0
   39.7885   35.0048   51.2868 N   0  0  0  0  0  0  0  0  0  0  0  0
   38.2148   37.0860   57.5400 C   0  0  0  0  0  0  0  0  0  0  0  0
   39.0196   35.5423   53.7457 C   0  0  0  0  0  0  0  0  0  0  0  0
   40.7626   35.9966   51.0915 N   0  0  0  0  0  0  0  0  0  0  0  0
   40.4294   37.2055   51.7821 N   0  0  0  0  0  0  0  0  0  0  0  0
   37.1833   36.5947   58.4455 C   0  0  0  0  0  0  0  0  0  0  0  0
  1  2  1  0
  1  3  1  0
  3  4  1  0
  3  5  1  1
  4  6  1  0
  7  2  1  6
  6  7  1  0
  6  8  1  0
  7  9  1  0
  2 10  1  0
  8 11  1  1
  9 12  1  0
 12 13  1  6
 11 14  1  0
 10 15  1  6
 10 16  1  0
 12 16  1  0
 16 17  1  1
  8 18  1  0
 14 19  1  0
 18 19  1  0
 13 20  1  0
  9 21  1  1
 18 21  1  6
 19 22  1  0
 22 23  1  0
 17 24  1  0
 20 24  1  0
M  END
$$$$
