0
     RDKit          3D

 11 11  0  0  0  0  0  0  0  0999 V2000
   13.2030   36.9900   21.4701 O   0  0  0  0  0  0  0  0  0  0  0  0
   14.0468   36.3301   20.8792 S   0  0  0  0  0  0  0  0  0  0  0  0
   13.4988   34.9588   20.2806 N   0  0  0  0  0  0  0  0  0  0  0  0
   14.3832   36.9300   19.3132 C   0  0  1  0  0  0  0  0  0  0  0  0
   14.9367   38.0835   19.0491 O   0  0  0  0  0  0  0  0  0  0  0  0
   14.2356   35.9213   18.2427 C   0  0  0  0  0  0  0  0  0  0  0  0
   13.6782   34.7275   18.9269 C   0  0  2  0  0  0  0  0  0  0  0  0
   15.3080   36.0766   21.5290 O   0  0  0  0  0  0  0  0  0  0  0  0
   13.2279   33.4244   18.3262 C   0  0  0  0  0  0  0  0  0  0  0  0
   12.3980   32.6938   18.8577 O   0  0  0  0  0  0  0  0  0  0  0  0
   14.0052   33.0795   17.1920 O   0  0  0  0  0  0  0  0  0  0  0  0
  1  2  2  0
  2  3  1  0
  2  4  1  0
  4  5  1  1
  4  6  1  0
  3  7  1  0
  6  7  1  0
  2  8  2  0
  7  9  1  6
  9 10  2  0
  9 11  1  0
M  END
$$$$
1
     RDKit          3D

 13 14  0  0  0  0  0  0  0  0999 V2000
   14.2048   37.3561   20.7209 N   0  0  0  0  0  0  0  0  0  0  0  0
   13.8791   36.1445   20.9300 C   0  0  0  0  0  0  0  0  0  0  0  0
   14.6945   37.5261   19.3968 N   0  0  0  0  0  0  0  0  0  0  0  0
   13.8893   35.3438   20.1444 C   0  0  2  0  0  0  0  0  0  0  0  0
   14.3654   35.8989   18.8179 C   0  0  2  0  0  0  0  0  0  0  0  0
   14.6332   35.5841   17.5075 C   0  0  0  0  0  0  0  0  0  0  0  0
   14.3254   34.1667   17.3375 C   0  0  1  0  0  0  0  0  0  0  0  0
   13.7545   33.4367   18.4719 C   0  0  0  0  0  0  0  0  0  0  0  0
   13.5564   33.9362   19.7726 C   0  0  0  0  0  0  0  0  0  0  0  0
   13.0892   35.8828   22.1049 O   0  0  0  0  0  0  0  0  0  0  0  0
   14.5467   33.5367   15.9915 C   0  0  0  0  0  0  0  0  0  0  0  0
   14.7987   34.3424   15.0331 O   0  0  0  0  0  0  0  0  0  0  0  0
   14.3705   32.4711   15.8674 O   0  0  0  0  0  0  0  0  0  0  0  0
  1  2  1  0
  1  3  1  0
  2  4  1  0
  3  5  1  0
  4  5  1  0
  5  6  1  1
  6  7  1  0
  7  8  1  0
  4  9  1  6
  8  9  1  0
  2 10  2  0
  7 11  1  6
 11 12  1  0
 11 13  2  0
M  END
$$$$
10
     RDKit          3D

 18 20  0  0  0  0  0  0  0  0999 V2000
   13.8612   37.3445   11.6528 C   0  0  0  0  0  0  0  0  0  0  0  0
   12.7493   36.9400   12.0010 C   0  0  0  0  0  0  0  0  0  0  0  0
   12.4530   35.9068   12.6035 C   0  0  0  0  0  0  0  0  0  0  0  0
   13.4846   35.1809   12.8513 C   0  0  1  0  0  0  0  0  0  0  0  0
   14.8219   35.3698   12.5010 C   0  0  0  0  0  0  0  0  0  0  0  0
   11.0618   35.5428   13.0366 C   0  0  0  0  0  0  0  0  0  0  0  0
   15.0056   36.5869   11.7984 N   0  0  0  0  0  0  0  0  0  0  0  0
   10.1585   36.2163   12.6366 O   0  0  0  0  0  0  0  0  0  0  0  0
   13.1661   34.0265   13.7599 C   0  0  0  0  0  0  0  0  0  0  0  0
   14.2947   33.1690   14.1271 O   0  0  0  0  0  0  0  0  0  0  0  0
   10.8891   34.4617   13.9085 N   0  0  0  0  0  0  0  0  0  0  0  0
   11.9361   33.6907   14.2942 C   0  0  0  0  0  0  0  0  0  0  0  0
    9.6769   34.2345   14.6786 C   0  0  2  0  0  0  0  0  0  0  0  0
   11.5838   32.6256   15.1784 C   0  0  0  0  0  0  0  0  0  0  0  0
   10.0848   33.0683   15.5214 C   0  0  1  0  0  0  0  0  0  0  0  0
    8.5124   34.7768   14.6774 O   0  0  0  0  0  0  0  0  0  0  0  0
    9.2179   32.6670   16.5441 C   0  0  0  0  0  0  0  0  0  0  0  0
    7.8093   34.8835   13.4891 C   0  0  0  0  0  0  0  0  0  0  0  0
  1  2  1  0
  2  3  1  0
  3  4  1  0
  4  5  1  1
  3  6  1  0
  1  7  1  0
  5  7  1  0
  6  8  2  0
  4  9  1  0
  9 10  1  0
  6 11  1  0
  9 12  1  0
 11 12  1  0
 11 13  1  0
 12 14  1  0
 13 15  1  0
 14 15  1  0
 13 16  1  6
 15 17  1  1
 16 18  1  0
M  END
$$$$
100
     RDKit          3D

 26 29  0  0  0  0  0  0  0  0999 V2000
   14.2048   37.3561   20.7209 O   0  0  0  0  0  0  0  0  0  0  0  0
   14.5372   36.2818   20.2192 C   0  0  0  0  0  0  0  0  0  0  0  0
   13.6665   35.5688   19.3163 C   0  0  1  0  0  0  0  0  0  0  0  0
   15.6545   35.7845   20.6786 O   0  0  0  0  0  0  0  0  0  0  0  0
   13.5745   35.9703   18.0044 C   0  0  0  0  0  0  0  0  0  0  0  0
   12.8730   35.0902   17.0331 C   0  0  1  0  0  0  0  0  0  0  0  0
   12.7270   35.4425   15.6641 C   0  0  0  0  0  0  0  0  0  0  0  0
   12.7489   34.5964   14.6853 C   0  0  2  0  0  0  0  0  0  0  0  0
   12.5623   33.8414   17.5136 C   0  0  1  0  0  0  0  0  0  0  0  0
   12.6171   34.9661   13.2693 C   0  0  1  0  0  0  0  0  0  0  0  0
   13.0095   34.3835   19.7656 C   0  0  0  0  0  0  0  0  0  0  0  0
   11.8196   35.8937   12.9748 O   0  0  0  0  0  0  0  0  0  0  0  0
   13.4427   34.4421   12.2838 C   0  0  0  0  0  0  0  0  0  0  0  0
   12.4984   33.5139   18.8403 C   0  0  0  0  0  0  0  0  0  0  0  0
   13.7724   32.9753   12.4570 C   0  0  1  0  0  0  0  0  0  0  0  0
   12.0251   33.0602   16.3414 C   0  0  0  0  0  0  0  0  0  0  0  0
   13.5557   32.4639   13.7271 N   0  0  0  0  0  0  0  0  0  0  0  0
   12.7728   33.1695   14.7916 C   0  0  2  0  0  0  0  0  0  0  0  0
   10.5290   35.6029   12.9964 C   0  0  0  0  0  0  0  0  0  0  0  0
   14.1527   32.1043   11.4912 N   0  0  0  0  0  0  0  0  0  0  0  0
   14.5750   32.7108   10.2860 C   0  0  0  0  0  0  0  0  0  0  0  0
   14.1636   30.7597   11.5284 C   0  0  0  0  0  0  0  0  0  0  0  0
   13.7270   30.0555   12.4421 O   0  0  0  0  0  0  0  0  0  0  0  0
   14.6170   29.9402   10.2845 C   0  0  0  0  0  0  0  0  0  0  0  0
   14.8931   31.9528    9.1280 C   0  0  0  0  0  0  0  0  0  0  0  0
   14.9166   30.5799    9.1687 C   0  0  0  0  0  0  0  0  0  0  0  0
  1  2  2  0
  3  2  1  6
  2  4  1  0
  3  5  1  0
  6  5  1  6
  6  7  1  0
  8  7  1  1
  6  9  1  0
  8 10  1  0
  3 11  1  0
 10 12  1  1
 10 13  1  0
  9 14  1  1
 11 14  1  0
 13 15  1  0
  9 16  1  0
 15 17  1  0
  8 18  1  0
 18 16  1  1
 17 18  1  0
 12 19  1  0
 15 20  1  6
 20 21  1  0
 20 22  1  0
 22 23  2  0
 22 24  1  0
 21 25  1  0
 24 26  1  0
 25 26  1  0
M  END
$$$$
101
     RDKit          3D

 26 28  0  0  0  0  0  0  0  0999 V2000
   13.7440   37.2699   20.6884 O   0  0  0  0  0  0  0  0  0  0  0  0
   14.8235   36.8113   20.1767 S   0  0  0  0  0  0  0  0  0  0  0  0
   14.4722   35.5369   19.1700 C   0  0  1  0  0  0  0  0  0  0  0  0
   13.5508   34.4712   19.6199 C   0  0  0  0  0  0  0  0  0  0  0  0
   13.0748   33.5836   18.6121 C   0  0  2  0  0  0  0  0  0  0  0  0
   14.6779   35.6149   17.6792 C   0  0  0  0  0  0  0  0  0  0  0  0
   15.8652   36.1858   21.1076 O   0  0  0  0  0  0  0  0  0  0  0  0
   15.7326   37.6563   19.0857 N   0  0  0  0  0  0  0  0  0  0  0  0
   14.1970   34.6115   16.8252 C   0  0  0  0  0  0  0  0  0  0  0  0
   13.3762   33.6002   17.3048 C   0  0  2  0  0  0  0  0  0  0  0  0
   12.7215   32.6277   16.3709 C   0  0  2  0  0  0  0  0  0  0  0  0
   13.3758   32.3146   15.2673 O   0  0  0  0  0  0  0  0  0  0  0  0
   11.3583   32.8832   16.0451 C   0  0  0  0  0  0  0  0  0  0  0  0
   11.0130   32.4085   14.7958 C   0  0  0  0  0  0  0  0  0  0  0  0
   10.3730   33.5581   16.8829 C   0  0  0  0  0  0  0  0  0  0  0  0
   10.6332   33.6768   18.2223 C   0  0  0  0  0  0  0  0  0  0  0  0
   11.8263   33.4313   19.0179 C   0  0  1  0  0  0  0  0  0  0  0  0
   11.5489   32.7111   20.3637 C   0  0  0  0  0  0  0  0  0  0  0  0
   12.3645   31.9299   14.2918 C   0  0  0  0  0  0  0  0  0  0  0  0
   12.5715   31.3641   13.1404 C   0  0  0  0  0  0  0  0  0  0  0  0
   12.0296   31.4399   12.0041 C   0  0  0  0  0  0  0  0  0  0  0  0
   10.7798   31.7160   11.8365 O   0  0  0  0  0  0  0  0  0  0  0  0
   12.6920   31.1190   10.7806 N   0  0  0  0  0  0  0  0  0  0  0  0
   14.0822   30.8155   10.7813 C   0  0  0  0  0  0  0  0  0  0  0  0
   14.8803   31.4238    9.8907 C   0  0  0  0  0  0  0  0  0  0  0  0
   14.4901   29.8643   11.6116 O   0  0  0  0  0  0  0  0  0  0  0  0
  1  2  2  0
  3  2  1  6
  3  4  1  0
  5  4  1  6
  3  6  1  0
  2  7  2  0
  2  8  1  0
  6  9  1  0
  5 10  1  0
 10  9  1  6
 10 11  1  0
 11 12  1  6
 11 13  1  0
 13 14  1  0
 13 15  1  0
 15 16  1  0
  5 17  1  0
 16 17  1  0
 17 18  1  6
 12 19  1  0
 14 19  1  0
 19 20  2  3
 20 21  1  0
 21 22  2  0
 21 23  1  0
 23 24  1  0
 24 25  1  0
 24 26  2  0
M  END
$$$$
102
     RDKit          3D

 26 28  0  0  0  0  0  0  0  0999 V2000
   15.0537   37.4130   20.3918 N   0  0  0  0  0  0  0  0  0  0  0  0
   14.1953   36.4566   20.2995 C   0  0  1  0  0  0  0  0  0  0  0  0
   13.3759   36.0923   21.2756 N   0  0  0  0  0  0  0  0  0  0  0  0
   13.9721   35.7565   19.0104 C   0  0  0  0  0  0  0  0  0  0  0  0
   14.6576   36.1102   17.8560 O   0  0  0  0  0  0  0  0  0  0  0  0
   13.0434   34.7270   18.9479 C   0  0  0  0  0  0  0  0  0  0  0  0
   12.6824   35.1896   21.1721 C   0  0  0  0  0  0  0  0  0  0  0  0
   12.8993   34.0622   17.6936 C   0  0  1  0  0  0  0  0  0  0  0  0
   12.3653   34.4535   20.0720 C   0  0  2  0  0  0  0  0  0  0  0  0
   11.5739   33.6416   17.4119 C   0  0  0  0  0  0  0  0  0  0  0  0
   11.2347   33.2598   20.2182 C   0  0  0  0  0  0  0  0  0  0  0  0
   13.8929   33.9112   16.7600 C   0  0  1  0  0  0  0  0  0  0  0  0
   13.5782   33.2596   15.5761 C   0  0  0  0  0  0  0  0  0  0  0  0
   15.0068   34.8147   16.8371 C   0  0  2  0  0  0  0  0  0  0  0  0
   16.2124   34.4503   17.1058 O   0  0  0  0  0  0  0  0  0  0  0  0
   12.4549   32.6589   15.3129 C   0  0  0  0  0  0  0  0  0  0  0  0
   11.4834   32.8148   16.1737 C   0  0  2  0  0  0  0  0  0  0  0  0
   12.3148   31.8605   14.1203 C   0  0  0  0  0  0  0  0  0  0  0  0
   13.2192   31.5282   13.2993 O   0  0  0  0  0  0  0  0  0  0  0  0
   10.1441   32.2699   15.9295 O   0  0  0  0  0  0  0  0  0  0  0  0
   13.1056   31.8540   11.9114 C   0  0  0  0  0  0  0  0  0  0  0  0
   12.4868   32.7810   11.5586 O   0  0  0  0  0  0  0  0  0  0  0  0
    9.0841   33.2150   15.6368 C   0  0  0  0  0  0  0  0  0  0  0  0
   14.2911   31.4737   11.0999 C   0  0  0  0  0  0  0  0  0  0  0  0
   14.6589   32.1814   10.0064 C   0  0  0  0  0  0  0  0  0  0  0  0
   14.7776   30.2656   11.4545 O   0  0  0  0  0  0  0  0  0  0  0  0
  2  1  1  6
  2  3  1  0
  2  4  1  0
  4  5  1  0
  4  6  1  0
  3  7  1  0
  6  8  1  0
  6  9  1  0
  7  9  1  0
  8 10  1  6
  9 11  1  1
  8 12  1  0
 12 13  1  6
  5 14  1  0
 12 14  1  0
 14 15  1  1
 13 16  1  0
 10 17  1  0
 16 17  1  0
 16 18  1  0
 18 19  1  0
 17 20  1  6
 19 21  1  0
 21 22  2  0
 20 23  1  0
 21 24  1  0
 24 25  1  0
 24 26  2  0
M  END
$$$$
103
     RDKit          3D

 26 29  0  0  0  0  0  0  0  0999 V2000
   15.0537   37.4130   20.3918 N   0  0  0  0  0  0  0  0  0  0  0  0
   14.1953   36.4566   20.2995 C   0  0  2  0  0  0  0  0  0  0  0  0
   13.3759   36.0923   21.2756 N   0  0  0  0  0  0  0  0  0  0  0  0
   12.7904   35.0089   21.2600 C   0  0  0  0  0  0  0  0  0  0  0  0
   12.7062   34.1086   20.2920 C   0  0  0  0  0  0  0  0  0  0  0  0
   14.1911   35.3959   19.1930 C   0  0  0  0  0  0  0  0  0  0  0  0
   13.4606   34.3332   19.1957 C   0  0  2  0  0  0  0  0  0  0  0  0
   11.9155   32.9097   20.3040 C   0  0  0  0  0  0  0  0  0  0  0  0
   11.0598   32.7658   19.1514 C   0  0  0  0  0  0  0  0  0  0  0  0
   11.5639   33.2643   17.8887 C   0  0  2  0  0  0  0  0  0  0  0  0
   11.0830   32.8915   16.6720 C   0  0  1  0  0  0  0  0  0  0  0  0
   12.9598   33.8364   17.9462 C   0  0  1  0  0  0  0  0  0  0  0  0
   13.6168   33.9869   16.6569 C   0  0  0  0  0  0  0  0  0  0  0  0
    9.7077   32.3804   16.6162 O   0  0  0  0  0  0  0  0  0  0  0  0
   11.5238   33.0847   15.4240 C   0  0  1  0  0  0  0  0  0  0  0  0
    8.6917   33.2893   16.3468 C   0  0  0  0  0  0  0  0  0  0  0  0
   13.0024   33.5811   15.4365 C   0  0  1  0  0  0  0  0  0  0  0  0
   13.6059   33.7454   14.1788 O   0  0  0  0  0  0  0  0  0  0  0  0
   12.9759   33.0978   13.0369 C   0  0  2  0  0  0  0  0  0  0  0  0
   13.5834   33.3049   11.8614 C   0  0  1  0  0  0  0  0  0  0  0  0
   11.4209   33.2684   13.2195 C   0  0  0  0  0  0  0  0  0  0  0  0
   10.9386   32.7053   14.3458 O   0  0  0  0  0  0  0  0  0  0  0  0
   13.9716   32.2587   11.0466 C   0  0  0  0  0  0  0  0  0  0  0  0
   14.0655   30.9830   11.4666 O   0  0  0  0  0  0  0  0  0  0  0  0
   12.9451   34.3209   10.9094 O   0  0  0  0  0  0  0  0  0  0  0  0
   14.9948   32.3049   10.0158 O   0  0  0  0  0  0  0  0  0  0  0  0
  2  1  1  1
  2  3  1  0
  3  4  1  0
  4  5  1  0
  2  6  1  0
  5  7  1  0
  7  6  1  6
  5  8  1  0
  8  9  1  0
 10  9  1  1
 10 11  1  0
  7 12  1  0
 10 12  1  0
 12 13  1  6
 11 14  1  6
 11 15  1  0
 14 16  1  0
 17 13  1  6
 15 17  1  0
 17 18  1  0
 18 19  1  0
 19 20  1  0
 19 21  1  6
 15 22  1  6
 21 22  1  0
 20 23  1  0
 23 24  1  0
 20 25  1  6
 23 26  2  0
M  END
$$$$
104
     RDKit          3D

 26 30  0  0  0  0  0  0  0  0999 V2000
   14.0587   37.3627   21.3545 O   0  0  0  0  0  0  0  0  0  0  0  0
   14.3886   36.4086   20.6095 S   0  0  0  0  0  0  0  0  0  0  0  0
   15.7244   35.8759   20.9518 O   0  0  0  0  0  0  0  0  0  0  0  0
   13.5411   35.2306   20.2447 N   0  0  0  0  0  0  0  0  0  0  0  0
   14.4614   37.1573   19.0264 C   0  0  2  0  0  0  0  0  0  0  0  0
   13.3219   34.5405   19.1099 C   0  0  1  0  0  0  0  0  0  0  0  0
   13.6792   35.1924   17.8748 C   0  0  0  0  0  0  0  0  0  0  0  0
   13.4054   34.5197   16.6173 C   0  0  1  0  0  0  0  0  0  0  0  0
   13.0134   33.1763   18.8978 C   0  0  0  0  0  0  0  0  0  0  0  0
   14.3236   36.4586   17.8902 N   0  0  0  0  0  0  0  0  0  0  0  0
   12.9569   33.2846   16.5647 C   0  0  0  0  0  0  0  0  0  0  0  0
   14.8521   38.4583   19.0736 O   0  0  0  0  0  0  0  0  0  0  0  0
   12.6938   32.5788   17.7865 C   0  0  0  0  0  0  0  0  0  0  0  0
   13.5709   35.2592   15.2778 C   0  0  0  0  0  0  0  0  0  0  0  0
   12.7366   32.7701   15.2492 C   0  0  0  0  0  0  0  0  0  0  0  0
   12.9555   33.4170   14.1472 C   0  0  2  0  0  0  0  0  0  0  0  0
   13.2625   34.6247   14.1446 C   0  0  2  0  0  0  0  0  0  0  0  0
   13.4531   35.2517   12.7703 C   0  0  0  0  0  0  0  0  0  0  0  0
   12.7724   32.8101   12.7639 C   0  0  1  0  0  0  0  0  0  0  0  0
   12.9765   33.4478   11.6550 C   0  0  1  0  0  0  0  0  0  0  0  0
   12.6636   31.3371   12.6284 C   0  0  0  0  0  0  0  0  0  0  0  0
   13.2561   34.6210   11.6960 C   0  0  0  0  0  0  0  0  0  0  0  0
   13.0031   30.6837   11.6071 C   0  0  0  0  0  0  0  0  0  0  0  0
   13.1428   29.2614   11.5502 O   0  0  0  0  0  0  0  0  0  0  0  0
   13.1428   31.3654   10.3643 C   0  0  0  0  0  0  0  0  0  0  0  0
   13.1805   32.6898   10.3503 C   0  0  0  0  0  0  0  0  0  0  0  0
  1  2  2  0
  2  3  2  0
  2  4  1  0
  2  5  1  0
  4  6  1  0
  6  7  1  0
  7  8  1  0
  6  9  1  1
  5 10  1  0
  7 10  1  0
  8 11  1  0
  5 12  1  6
  9 13  1  0
 11 13  1  0
  8 14  1  1
 11 15  1  0
 16 15  1  1
 17 14  1  1
 16 17  1  0
 17 18  1  0
 16 19  1  0
 19 20  1  0
 19 21  1  1
 18 22  1  0
 20 22  1  1
 21 23  2  0
 23 24  1  0
 23 25  1  0
 20 26  1  0
 25 26  2  0
M  END
$$$$
105
     RDKit          3D

 26 30  0  0  0  0  0  0  0  0999 V2000
   10.3865   32.8448   20.0220 C   0  0  0  0  0  0  0  0  0  0  0  0
   10.5425   32.9587   18.6913 C   0  0  2  0  0  0  0  0  0  0  0  0
   11.7721   33.2439   18.1133 C   0  0  1  0  0  0  0  0  0  0  0  0
   12.9377   33.5135   18.9569 C   0  0  0  0  0  0  0  0  0  0  0  0
   12.7772   33.4877   20.3511 C   0  0  0  0  0  0  0  0  0  0  0  0
   11.4776   33.1836   20.8980 C   0  0  0  0  0  0  0  0  0  0  0  0
   11.9708   33.2098   16.6734 C   0  0  2  0  0  0  0  0  0  0  0  0
   14.2569   33.8377   18.3117 C   0  0  0  0  0  0  0  0  0  0  0  0
   10.9341   32.9089   15.8018 C   0  0  0  0  0  0  0  0  0  0  0  0
   13.2437   33.3591   16.0837 C   0  0  0  0  0  0  0  0  0  0  0  0
    9.5737   32.9207   16.1132 C   0  0  0  0  0  0  0  0  0  0  0  0
   15.1157   34.3233   19.0744 O   0  0  0  0  0  0  0  0  0  0  0  0
    9.4008   32.8539   17.7187 C   0  0  0  0  0  0  0  0  0  0  0  0
   14.3035   33.7966   16.9830 N   0  0  0  0  0  0  0  0  0  0  0  0
   11.2539   32.5894   14.4241 C   0  0  0  0  0  0  0  0  0  0  0  0
   13.4483   33.1629   14.8365 C   0  0  0  0  0  0  0  0  0  0  0  0
   14.7659   33.4372   14.2885 O   0  0  0  0  0  0  0  0  0  0  0  0
   12.6154   32.6894   13.9188 C   0  0  2  0  0  0  0  0  0  0  0  0
   12.7940   32.3892   12.5683 O   0  0  0  0  0  0  0  0  0  0  0  0
   12.7088   32.9956   11.5781 C   0  0  1  0  0  0  0  0  0  0  0  0
   13.1215   32.5042   10.4285 C   0  0  0  0  0  0  0  0  0  0  0  0
   11.4121   33.7351   11.3487 O   0  0  0  0  0  0  0  0  0  0  0  0
   11.3319   34.5667   10.4137 C   0  0  0  0  0  0  0  0  0  0  0  0
   13.1283   33.3934    9.1791 N   0  0  0  0  0  0  0  0  0  0  0  0
   11.8202   34.0345    9.0738 C   0  0  0  0  0  0  0  0  0  0  0  0
   13.6354   32.6926    8.0169 C   0  0  0  0  0  0  0  0  0  0  0  0
  2  1  1  1
  2  3  1  0
  3  4  1  1
  4  5  1  0
  1  6  1  0
  5  6  1  0
  3  7  1  0
  4  8  1  0
  7  9  1  1
  7 10  1  0
  9 11  1  0
  8 12  2  0
  2 13  1  0
 11 13  1  0
  8 14  1  0
 10 14  1  0
  9 15  1  0
 10 16  1  0
 16 17  1  0
 15 18  1  0
 16 18  1  0
 18 19  1  6
 20 19  1  1
 20 21  1  0
 20 22  1  0
 22 23  1  0
 21 24  1  0
 23 25  1  0
 24 25  1  0
 24 26  1  0
M  END
$$$$
106
     RDKit          3D

 26 29  0  0  0  0  0  0  0  0999 V2000
   14.0587   37.3627   21.3545 O   0  0  0  0  0  0  0  0  0  0  0  0
   14.3886   36.4086   20.6095 S   0  0  0  0  0  0  0  0  0  0  0  0
   15.7244   35.8759   20.9518 O   0  0  0  0  0  0  0  0  0  0  0  0
   13.5411   35.2306   20.2447 N   0  0  0  0  0  0  0  0  0  0  0  0
   14.4614   37.1573   19.0264 C   0  0  2  0  0  0  0  0  0  0  0  0
   13.3219   34.5405   19.1099 C   0  0  1  0  0  0  0  0  0  0  0  0
   13.6792   35.1924   17.8748 C   0  0  0  0  0  0  0  0  0  0  0  0
   13.4054   34.5197   16.6173 C   0  0  1  0  0  0  0  0  0  0  0  0
   13.0134   33.1763   18.8978 C   0  0  0  0  0  0  0  0  0  0  0  0
   14.3236   36.4586   17.8902 N   0  0  0  0  0  0  0  0  0  0  0  0
   12.9569   33.2846   16.5647 C   0  0  0  0  0  0  0  0  0  0  0  0
   14.8521   38.4583   19.0736 O   0  0  0  0  0  0  0  0  0  0  0  0
   12.6938   32.5788   17.7865 C   0  0  0  0  0  0  0  0  0  0  0  0
   13.5709   35.2592   15.2778 C   0  0  0  0  0  0  0  0  0  0  0  0
   12.7366   32.7701   15.2492 C   0  0  0  0  0  0  0  0  0  0  0  0
   12.9555   33.4170   14.1472 C   0  0  2  0  0  0  0  0  0  0  0  0
   13.2625   34.6247   14.1446 C   0  0  2  0  0  0  0  0  0  0  0  0
   13.4531   35.2517   12.7703 C   0  0  0  0  0  0  0  0  0  0  0  0
   12.7724   32.8101   12.7639 C   0  0  0  0  0  0  0  0  0  0  0  0
   12.9765   33.4478   11.6550 C   0  0  0  0  0  0  0  0  0  0  0  0
   13.3672   34.7406   11.6592 C   0  0  0  0  0  0  0  0  0  0  0  0
   12.7456   32.7204   10.1598 C   0  0  0  0  0  0  0  0  0  0  0  0
   11.8076   33.0809    9.5642 O   0  0  0  0  0  0  0  0  0  0  0  0
   13.4579   31.6076    9.9933 N   0  0  0  0  0  0  0  0  0  0  0  0
   13.3701   30.8593    8.7594 C   0  0  0  0  0  0  0  0  0  0  0  0
   13.9685   30.6779   10.9864 C   0  0  0  0  0  0  0  0  0  0  0  0
  1  2  2  0
  2  3  2  0
  2  4  1  0
  2  5  1  0
  4  6  1  0
  6  7  1  0
  7  8  1  0
  6  9  1  1
  5 10  1  0
  7 10  1  0
  8 11  1  0
  5 12  1  6
  9 13  1  0
 11 13  1  0
  8 14  1  1
 11 15  1  0
 16 15  1  1
 17 14  1  1
 16 17  1  0
 17 18  1  0
 16 19  1  0
 19 20  1  0
 18 21  1  0
 20 21  1  0
 20 22  1  0
 22 23  2  0
 22 24  1  0
 24 25  1  0
 24 26  1  0
M  END
$$$$
107
     RDKit          3D

 26 31  0  0  0  0  0  0  0  0999 V2000
   10.3865   32.8448   20.0220 C   0  0  0  0  0  0  0  0  0  0  0  0
   10.5425   32.9587   18.6913 C   0  0  2  0  0  0  0  0  0  0  0  0
   11.7721   33.2439   18.1133 C   0  0  1  0  0  0  0  0  0  0  0  0
   12.9377   33.5135   18.9569 C   0  0  0  0  0  0  0  0  0  0  0  0
   12.7772   33.4877   20.3511 C   0  0  0  0  0  0  0  0  0  0  0  0
   11.4776   33.1836   20.8980 C   0  0  0  0  0  0  0  0  0  0  0  0
   11.9708   33.2098   16.6734 C   0  0  2  0  0  0  0  0  0  0  0  0
   14.2569   33.8377   18.3117 C   0  0  0  0  0  0  0  0  0  0  0  0
   10.9341   32.9089   15.8018 C   0  0  0  0  0  0  0  0  0  0  0  0
   13.2437   33.3591   16.0837 C   0  0  2  0  0  0  0  0  0  0  0  0
    9.5737   32.9207   16.1132 C   0  0  0  0  0  0  0  0  0  0  0  0
   15.1157   34.3233   19.0744 O   0  0  0  0  0  0  0  0  0  0  0  0
    9.4008   32.8539   17.7187 C   0  0  0  0  0  0  0  0  0  0  0  0
   14.3035   33.7966   16.9830 N   0  0  0  0  0  0  0  0  0  0  0  0
   11.2539   32.5894   14.4241 C   0  0  1  0  0  0  0  0  0  0  0  0
   10.3023   32.2459   13.4517 C   0  0  0  0  0  0  0  0  0  0  0  0
   13.5412   33.2708   14.7747 C   0  0  0  0  0  0  0  0  0  0  0  0
   10.6836   31.7483   12.2331 C   0  0  0  0  0  0  0  0  0  0  0  0
    9.6710   31.4222   11.2461 O   0  0  0  0  0  0  0  0  0  0  0  0
   12.5587   32.7891   13.9246 C   0  0  0  0  0  0  0  0  0  0  0  0
   12.0047   31.9623   11.7669 N   0  0  0  0  0  0  0  0  0  0  0  0
   12.4110   31.5581   10.4464 C   0  0  0  0  0  0  0  0  0  0  0  0
   13.7920   31.5201   10.3238 C   0  0  0  0  0  0  0  0  0  0  0  0
   14.4046   32.2369   11.3654 O   0  0  0  0  0  0  0  0  0  0  0  0
   13.1415   32.4873   12.4101 C   0  0  2  0  0  0  0  0  0  0  0  0
   14.5931   31.1289    9.4453 O   0  0  0  0  0  0  0  0  0  0  0  0
  2  1  1  1
  2  3  1  0
  3  4  1  1
  4  5  1  0
  1  6  1  0
  5  6  1  0
  3  7  1  0
  4  8  1  0
  7  9  1  1
  7 10  1  0
  9 11  1  0
  8 12  2  0
  2 13  1  0
 11 13  1  0
  8 14  1  0
 10 14  1  0
  9 15  1  0
 15 16  1  6
 10 17  1  6
 16 18  1  0
 18 19  2  0
 15 20  1  0
 17 20  1  0
 18 21  1  0
 21 22  1  0
 22 23  1  0
 23 24  1  0
 20 25  1  0
 21 25  1  0
 25 24  1  1
 23 26  2  0
M  END
$$$$
108
     RDKit          3D

 26 31  0  0  0  0  0  0  0  0999 V2000
   15.5264   37.3056   20.5482 N   0  0  0  0  0  0  0  0  0  0  0  0
   14.3323   36.7974   20.7227 C   0  0  0  0  0  0  0  0  0  0  0  0
   13.9344   35.7518   19.8117 C   0  0  2  0  0  0  0  0  0  0  0  0
   15.9141   36.8613   19.2277 N   0  0  0  0  0  0  0  0  0  0  0  0
   13.3807   37.1882   21.7859 O   0  0  0  0  0  0  0  0  0  0  0  0
   15.0713   35.9976   18.7447 C   0  0  1  0  0  0  0  0  0  0  0  0
   15.1227   35.2376   17.4789 C   0  0  0  0  0  0  0  0  0  0  0  0
   16.0381   35.4080   16.6166 N   0  0  0  0  0  0  0  0  0  0  0  0
   12.9859   34.8688   19.4676 C   0  0  2  0  0  0  0  0  0  0  0  0
   14.0424   34.2986   17.3559 C   0  0  0  0  0  0  0  0  0  0  0  0
   11.9641   34.5899   20.4596 C   0  0  0  0  0  0  0  0  0  0  0  0
   13.0505   34.0920   18.3286 C   0  0  2  0  0  0  0  0  0  0  0  0
   14.0666   33.5854   16.0579 C   0  0  2  0  0  0  0  0  0  0  0  0
   13.1483   32.7113   15.7620 N   0  0  0  0  0  0  0  0  0  0  0  0
   11.9458   33.0823   18.1682 C   0  0  2  0  0  0  0  0  0  0  0  0
   12.0936   32.5509   16.7634 C   0  0  1  0  0  0  0  0  0  0  0  0
   11.0465   32.8816   19.0366 C   0  0  0  0  0  0  0  0  0  0  0  0
   11.1210   31.8277   16.0799 C   0  0  0  0  0  0  0  0  0  0  0  0
   11.0393   33.5877   20.2085 C   0  0  0  0  0  0  0  0  0  0  0  0
   11.6356   31.4673   14.8212 C   0  0  0  0  0  0  0  0  0  0  0  0
   12.7823   32.1533   14.6389 N   0  0  0  0  0  0  0  0  0  0  0  0
   15.1916   33.8038   15.1210 N   0  0  0  0  0  0  0  0  0  0  0  0
   16.0597   34.7015   15.4929 C   0  0  0  0  0  0  0  0  0  0  0  0
   11.1316   30.5662   13.7928 C   0  0  0  0  0  0  0  0  0  0  0  0
   10.5143   31.0755   12.8044 O   0  0  0  0  0  0  0  0  0  0  0  0
   11.8437   29.4184   13.5149 N   0  0  0  0  0  0  0  0  0  0  0  0
  1  2  1  0
  3  2  1  6
  1  4  1  0
  2  5  1  0
  3  6  1  0
  6  4  1  1
  6  7  1  0
  7  8  1  0
  3  9  1  0
  7 10  1  0
  9 11  1  1
  9 12  1  0
 12 10  1  6
 10 13  1  0
 13 14  1  0
 12 15  1  0
 14 16  1  0
 15 16  1  0
 15 17  1  6
 16 18  1  6
 11 19  1  0
 17 19  1  0
 18 20  1  0
 14 21  1  0
 20 21  1  0
 13 22  1  1
  8 23  1  0
 22 23  1  0
 20 24  1  0
 24 25  2  0
 24 26  1  0
M  END
$$$$
109
     RDKit          3D

 26 29  0  0  0  0  0  0  0  0999 V2000
   14.3059   37.3963   21.0499 N   0  0  0  0  0  0  0  0  0  0  0  0
   15.0801   36.8191   19.9811 C   0  0  0  0  0  0  0  0  0  0  0  0
   14.4992   35.7271   19.3427 N   0  0  0  0  0  0  0  0  0  0  0  0
   13.4316   35.3032   20.1946 C   0  0  2  0  0  0  0  0  0  0  0  0
   14.5579   35.3709   18.1311 C   0  0  0  0  0  0  0  0  0  0  0  0
   13.4282   36.2960   21.2544 C   0  0  0  0  0  0  0  0  0  0  0  0
   12.6487   34.0940   20.1141 C   0  0  0  0  0  0  0  0  0  0  0  0
   13.0521   33.3352   18.9717 C   0  0  1  0  0  0  0  0  0  0  0  0
   12.5413   36.3449   22.3040 O   0  0  0  0  0  0  0  0  0  0  0  0
   12.1259   32.5896   18.4128 O   0  0  0  0  0  0  0  0  0  0  0  0
   10.9834   33.1993   17.9554 C   0  0  1  0  0  0  0  0  0  0  0  0
   13.8534   34.0463   17.8491 C   0  0  0  0  0  0  0  0  0  0  0  0
   10.6209   33.2139   16.6506 C   0  0  1  0  0  0  0  0  0  0  0  0
   10.0479   33.6808   18.9006 C   0  0  0  0  0  0  0  0  0  0  0  0
    9.6244   33.6996   16.2900 C   0  0  2  0  0  0  0  0  0  0  0  0
    8.5878   34.1357   17.2150 C   0  0  0  0  0  0  0  0  0  0  0  0
    8.8904   34.1099   18.4893 C   0  0  0  0  0  0  0  0  0  0  0  0
   15.9301   37.5669   19.2531 O   0  0  0  0  0  0  0  0  0  0  0  0
   11.7027   32.6422   15.7298 C   0  0  0  0  0  0  0  0  0  0  0  0
   12.6728   32.2622   15.7660 O   0  0  0  0  0  0  0  0  0  0  0  0
   11.0097   32.3896   14.4718 N   0  0  0  0  0  0  0  0  0  0  0  0
    9.1960   33.6470   14.7779 C   0  0  0  0  0  0  0  0  0  0  0  0
    9.9917   32.9796   13.9741 C   0  0  2  0  0  0  0  0  0  0  0  0
    9.6603   32.7872   12.5345 C   0  0  0  0  0  0  0  0  0  0  0  0
   10.2369   33.0527   11.7855 O   0  0  0  0  0  0  0  0  0  0  0  0
    8.4940   32.0632   12.5004 O   0  0  0  0  0  0  0  0  0  0  0  0
  1  2  1  0
  2  3  1  0
  3  4  1  0
  3  5  1  0
  1  6  1  0
  4  6  1  0
  4  7  1  1
  7  8  1  0
  6  9  2  0
  8 10  1  6
 11 10  1  1
  5 12  1  0
  8 12  1  0
 11 13  1  0
 11 14  1  0
 13 15  1  0
 15 16  1  1
 14 17  1  0
 16 17  1  0
  2 18  2  0
 13 19  1  6
 19 20  2  0
 19 21  1  0
 15 22  1  0
 21 23  1  0
 22 23  1  0
 23 24  1  1
 24 25  2  0
 24 26  1  0
M  END
$$$$
11
     RDKit          3D

 18 20  0  0  0  0  0  0  0  0999 V2000
   15.5264   37.3056   20.5482 N   0  0  0  0  0  0  0  0  0  0  0  0
   14.3323   36.7974   20.7227 C   0  0  0  0  0  0  0  0  0  0  0  0
   13.9344   35.7518   19.8117 C   0  0  1  0  0  0  0  0  0  0  0  0
   15.9141   36.8613   19.2277 N   0  0  0  0  0  0  0  0  0  0  0  0
   13.3807   37.1882   21.7859 N   0  0  0  0  0  0  0  0  0  0  0  0
   14.9965   35.8843   18.8356 C   0  0  0  0  0  0  0  0  0  0  0  0
   14.9719   35.0633   17.6241 N   0  0  0  0  0  0  0  0  0  0  0  0
   13.9470   34.2043   17.5228 C   0  0  0  0  0  0  0  0  0  0  0  0
   12.9568   34.0157   18.4494 C   0  0  1  0  0  0  0  0  0  0  0  0
   13.8991   33.3828   16.2942 C   0  0  0  0  0  0  0  0  0  0  0  0
   11.9356   33.0074   18.3444 C   0  0  2  0  0  0  0  0  0  0  0  0
   13.0867   34.8032   19.7777 C   0  0  0  0  0  0  0  0  0  0  0  0
   11.7739   32.4444   17.1160 C   0  0  0  0  0  0  0  0  0  0  0  0
   12.6190   32.6779   16.2003 C   0  0  2  0  0  0  0  0  0  0  0  0
   12.5641   31.9286   14.8854 O   0  0  0  0  0  0  0  0  0  0  0  0
   10.8387   32.8422   19.5232 C   0  0  0  0  0  0  0  0  0  0  0  0
    9.5972   32.8997   19.0886 C   0  0  0  0  0  0  0  0  0  0  0  0
   11.4031   31.2545   14.6464 C   0  0  0  0  0  0  0  0  0  0  0  0
  1  2  1  0
  2  3  1  0
  1  4  1  0
  2  5  1  0
  3  6  1  0
  4  6  1  0
  6  7  1  0
  7  8  1  0
  8  9  1  0
  8 10  1  0
  9 11  1  0
  3 12  1  1
  9 12  1  1
 11 13  1  0
 10 14  1  0
 13 14  1  0
 14 15  1  1
 11 16  1  6
 16 17  1  0
 15 18  1  0
M  END
$$$$
110
     RDKit          3D

 26 28  0  0  0  0  0  0  0  0999 V2000
   13.9802   37.4141   21.1990 O   0  0  0  0  0  0  0  0  0  0  0  0
   14.3989   36.4215   20.5637 C   0  0  0  0  0  0  0  0  0  0  0  0
   13.5812   35.4427   20.0237 C   0  0  2  0  0  0  0  0  0  0  0  0
   15.7548   36.4304   20.1130 O   0  0  0  0  0  0  0  0  0  0  0  0
   12.7934   34.6405   20.7961 C   0  0  0  0  0  0  0  0  0  0  0  0
   13.6577   35.0910   18.5565 C   0  0  1  0  0  0  0  0  0  0  0  0
   12.9972   34.1527   18.1735 C   0  0  1  0  0  0  0  0  0  0  0  0
   14.2933   35.9378   17.4990 C   0  0  0  0  0  0  0  0  0  0  0  0
   12.1046   33.3397   19.0659 C   0  0  1  0  0  0  0  0  0  0  0  0
   11.4608   32.2399   18.3951 O   0  0  0  0  0  0  0  0  0  0  0  0
   12.9040   33.8590   16.8986 C   0  0  0  0  0  0  0  0  0  0  0  0
   11.9990   33.5194   20.3335 C   0  0  0  0  0  0  0  0  0  0  0  0
   10.1017   32.3826   18.4488 C   0  0  0  0  0  0  0  0  0  0  0  0
   14.2726   35.4713   16.2276 C   0  0  0  0  0  0  0  0  0  0  0  0
   12.1237   32.6690   16.3202 O   0  0  0  0  0  0  0  0  0  0  0  0
   13.4576   34.5643   15.8830 C   0  0  1  0  0  0  0  0  0  0  0  0
   12.2723   32.5851   14.9890 C   0  0  0  0  0  0  0  0  0  0  0  0
   13.1945   33.9671   14.5125 C   0  0  1  0  0  0  0  0  0  0  0  0
   12.6572   34.5355   13.5402 C   0  0  0  0  0  0  0  0  0  0  0  0
   12.9107   34.1924   12.1821 C   0  0  0  0  0  0  0  0  0  0  0  0
   13.5458   35.1185   11.3084 C   0  0  2  0  0  0  0  0  0  0  0  0
   12.3871   33.1780   11.8121 O   0  0  0  0  0  0  0  0  0  0  0  0
   14.9386   35.3703   11.5691 C   0  0  0  0  0  0  0  0  0  0  0  0
   12.9234   36.4095   11.2109 C   0  0  0  0  0  0  0  0  0  0  0  0
   15.8672   34.6216   10.9716 O   0  0  0  0  0  0  0  0  0  0  0  0
   15.2583   36.2881   12.4887 O   0  0  0  0  0  0  0  0  0  0  0  0
  1  2  2  0
  3  2  1  1
  2  4  1  0
  3  5  1  0
  3  6  1  0
  6  7  1  0
  6  8  1  6
  7  9  1  0
  9 10  1  1
  7 11  1  6
  5 12  1  0
  9 12  1  0
 10 13  1  0
  8 14  1  0
 11 15  1  0
 11 16  1  0
 16 14  1  1
 15 17  1  0
 16 18  1  0
 17 18  1  0
 18 19  1  6
 19 20  1  0
 20 21  1  0
 20 22  2  0
 21 23  1  0
 21 24  1  1
 23 25  2  0
 23 26  1  0
M  END
$$$$
111
     RDKit          3D

 26 28  0  0  0  0  0  0  0  0999 V2000
   14.7242   37.9432   18.9816 O   0  0  0  0  0  0  0  0  0  0  0  0
   14.8309   36.9559   19.7210 S   0  0  0  0  0  0  0  0  0  0  0  0
   14.3287   35.5121   19.0577 C   0  0  1  0  0  0  0  0  0  0  0  0
   14.0418   36.9675   21.0472 O   0  0  0  0  0  0  0  0  0  0  0  0
   16.3475   36.3732   20.0672 O   0  0  0  0  0  0  0  0  0  0  0  0
   13.4078   34.5815   19.6348 C   0  0  2  0  0  0  0  0  0  0  0  0
   13.1955   34.4804   21.0150 O   0  0  0  0  0  0  0  0  0  0  0  0
   13.0504   33.4201   18.8952 C   0  0  0  0  0  0  0  0  0  0  0  0
   13.2428   33.3867   17.4871 C   0  0  1  0  0  0  0  0  0  0  0  0
   14.5728   35.3746   17.5945 C   0  0  0  0  0  0  0  0  0  0  0  0
   14.0187   34.2873   16.8625 C   0  0  0  0  0  0  0  0  0  0  0  0
   12.6603   32.2973   16.6975 O   0  0  0  0  0  0  0  0  0  0  0  0
   12.5586   32.5325   15.4914 C   0  0  0  0  0  0  0  0  0  0  0  0
   14.3604   34.2243   15.4410 C   0  0  0  0  0  0  0  0  0  0  0  0
   11.7047   31.6202   14.8572 C   0  0  0  0  0  0  0  0  0  0  0  0
   13.4384   33.2577   14.7411 C   0  0  2  0  0  0  0  0  0  0  0  0
   14.9750   35.0559   14.8727 O   0  0  0  0  0  0  0  0  0  0  0  0
   11.5224   31.5236   13.4042 C   0  0  0  0  0  0  0  0  0  0  0  0
   13.4368   33.1725   13.3085 C   0  0  0  0  0  0  0  0  0  0  0  0
   12.4660   32.4049   12.6943 C   0  0  0  0  0  0  0  0  0  0  0  0
   12.3672   32.3132   11.1846 C   0  0  0  0  0  0  0  0  0  0  0  0
   11.4376   32.8264   10.5915 O   0  0  0  0  0  0  0  0  0  0  0  0
   13.4150   31.7967   10.4700 N   0  0  0  0  0  0  0  0  0  0  0  0
   14.5224   31.1830   11.1503 C   0  0  0  0  0  0  0  0  0  0  0  0
   14.6458   29.8652   10.6982 O   0  0  0  0  0  0  0  0  0  0  0  0
   13.6818   32.1808    9.1714 C   0  0  0  0  0  0  0  0  0  0  0  0
  1  2  2  0
  3  2  1  6
  2  4  2  0
  2  5  1  0
  3  6  1  0
  6  7  1  1
  6  8  1  0
  9  8  1  1
  3 10  1  0
  9 11  1  0
 10 11  1  0
  9 12  1  0
 12 13  1  0
 11 14  1  0
 13 15  2  0
 13 16  1  0
 14 16  1  0
 14 17  2  0
 15 18  1  0
 16 19  1  6
 18 20  2  0
 19 20  1  0
 20 21  1  0
 21 22  2  0
 21 23  1  0
 23 24  1  0
 24 25  1  0
 23 26  1  0
M  END
$$$$
12
     RDKit          3D

 19 21  0  0  0  0  0  0  0  0999 V2000
   14.9044   36.6646   21.3127 C   0  0  0  0  0  0  0  0  0  0  0  0
   14.9525   37.1302   19.9616 N   0  0  0  0  0  0  0  0  0  0  0  0
   14.4495   36.4668   18.9837 C   0  0  0  0  0  0  0  0  0  0  0  0
   14.1154   35.5864   21.3651 C   0  0  0  0  0  0  0  0  0  0  0  0
   13.7198   34.9532   20.1617 C   0  0  0  0  0  0  0  0  0  0  0  0
   13.9287   35.3937   19.0735 C   0  0  1  0  0  0  0  0  0  0  0  0
   12.9510   33.6475   20.1198 N   0  0  0  0  0  0  0  0  0  0  0  0
   12.8615   33.3967   18.8063 C   0  0  0  0  0  0  0  0  0  0  0  0
   13.3859   34.4709   18.1250 N   0  0  0  0  0  0  0  0  0  0  0  0
   13.5224   34.5771   16.6637 C   0  0  2  0  0  0  0  0  0  0  0  0
   12.3678   34.9932   16.1332 C   0  0  0  0  0  0  0  0  0  0  0  0
   12.3195   35.0595   14.7149 C   0  0  0  0  0  0  0  0  0  0  0  0
   14.0672   33.4216   16.0683 C   0  0  0  0  0  0  0  0  0  0  0  0
   13.9674   33.4213   14.6399 C   0  0  0  0  0  0  0  0  0  0  0  0
   12.9181   34.1276   14.0358 C   0  0  2  0  0  0  0  0  0  0  0  0
   12.6485   33.9585   12.3999 C   0  0  0  0  0  0  0  0  0  0  0  0
   11.8279   34.6972   11.9024 O   0  0  0  0  0  0  0  0  0  0  0  0
   12.8955   32.8385   11.8391 N   0  0  0  0  0  0  0  0  0  0  0  0
   13.6798   31.7599   12.4067 O   0  0  0  0  0  0  0  0  0  0  0  0
  1  2  1  0
  2  3  1  0
  1  4  1  0
  4  5  1  0
  6  3  1  1
  5  6  1  0
  5  7  1  0
  7  8  1  0
  6  9  1  0
  8  9  1  0
 10  9  1  1
 10 11  1  0
 11 12  1  0
 10 13  1  0
 13 14  1  0
 12 15  1  0
 14 15  1  0
 15 16  1  6
 16 17  2  0
 16 18  1  0
 18 19  1  0
M  END
$$$$
13
     RDKit          3D

 19 21  0  0  0  0  0  0  0  0999 V2000
   14.9044   36.6646   21.3127 C   0  0  0  0  0  0  0  0  0  0  0  0
   14.9525   37.1302   19.9616 N   0  0  0  0  0  0  0  0  0  0  0  0
   14.4495   36.4668   18.9837 C   0  0  0  0  0  0  0  0  0  0  0  0
   13.8406   35.1689   19.3201 C   0  0  0  0  0  0  0  0  0  0  0  0
   13.7439   34.7307   20.6397 C   0  0  0  0  0  0  0  0  0  0  0  0
   14.2436   35.5674   21.5952 C   0  0  0  0  0  0  0  0  0  0  0  0
   13.3054   34.3319   18.1337 C   0  0  2  0  0  0  0  0  0  0  0  0
   12.5096   34.9462   17.1938 C   0  0  0  0  0  0  0  0  0  0  0  0
   12.1054   34.1070   16.2588 C   0  0  1  0  0  0  0  0  0  0  0  0
   12.0606   32.7506   16.3335 C   0  0  1  0  0  0  0  0  0  0  0  0
   12.7465   32.1774   17.4311 C   0  0  0  0  0  0  0  0  0  0  0  0
   13.3529   33.0042   18.3422 C   0  0  0  0  0  0  0  0  0  0  0  0
   11.2587   32.1166   15.3275 C   0  0  0  0  0  0  0  0  0  0  0  0
   11.3201   34.9275   15.0189 C   0  0  2  0  0  0  0  0  0  0  0  0
   11.4680   30.6634   15.3421 O   0  0  0  0  0  0  0  0  0  0  0  0
   10.4463   32.6058   14.4751 C   0  0  0  0  0  0  0  0  0  0  0  0
   11.4113   36.1656   14.8948 O   0  0  0  0  0  0  0  0  0  0  0  0
   10.2154   34.1214   14.5366 C   0  0  0  0  0  0  0  0  0  0  0  0
   10.7918   36.5729   13.7543 C   0  0  0  0  0  0  0  0  0  0  0  0
  1  2  1  0
  2  3  1  0
  3  4  1  0
  4  5  1  0
  1  6  1  0
  5  6  1  0
  7  4  1  1
  7  8  1  0
  9  8  1  1
  9 10  1  0
 10 11  1  1
  7 12  1  0
 11 12  1  0
 10 13  1  0
  9 14  1  0
 13 15  2  0
 13 16  1  0
 14 17  1  1
 14 18  1  0
 16 18  1  0
 17 19  1  0
M  END
$$$$
14
     RDKit          3D

 19 23  0  0  0  0  0  0  0  0999 V2000
   15.0537   37.4130   20.3918 N   0  0  0  0  0  0  0  0  0  0  0  0
   14.1953   36.4566   20.2995 C   0  0  2  0  0  0  0  0  0  0  0  0
   15.7393   37.5033   19.2441 N   0  0  0  0  0  0  0  0  0  0  0  0
   13.3441   35.9069   21.3422 C   0  0  0  0  0  0  0  0  0  0  0  0
   14.3523   35.8137   18.9866 C   0  0  1  0  0  0  0  0  0  0  0  0
   15.3217   36.5276   18.3593 N   0  0  0  0  0  0  0  0  0  0  0  0
   12.6239   34.7388   20.9838 C   0  0  2  0  0  0  0  0  0  0  0  0
   13.6271   34.6001   18.7933 C   0  0  0  0  0  0  0  0  0  0  0  0
   11.7813   34.1142   21.8620 O   0  0  0  0  0  0  0  0  0  0  0  0
   10.8983   33.2085   21.2211 C   0  0  0  0  0  0  0  0  0  0  0  0
   13.7491   33.9750   17.5002 C   0  0  0  0  0  0  0  0  0  0  0  0
   12.8429   34.0752   19.7828 C   0  0  2  0  0  0  0  0  0  0  0  0
   11.9929   33.0467   19.1425 C   0  0  1  0  0  0  0  0  0  0  0  0
   14.5599   34.4345   16.5530 C   0  0  0  0  0  0  0  0  0  0  0  0
   12.2972   32.6758   17.9554 C   0  0  0  0  0  0  0  0  0  0  0  0
   11.0678   32.6315   20.0753 C   0  0  0  0  0  0  0  0  0  0  0  0
   13.1072   33.0699   17.0536 N   0  0  0  0  0  0  0  0  0  0  0  0
   14.4406   33.4994   15.3803 N   0  0  0  0  0  0  0  0  0  0  0  0
   13.4020   32.7078   15.7703 N   0  0  0  0  0  0  0  0  0  0  0  0
  1  2  1  0
  1  3  1  0
  2  4  1  1
  2  5  1  0
  3  6  1  0
  5  6  1  1
  7  4  1  1
  5  8  1  0
  7  9  1  0
  9 10  1  0
  8 11  1  0
  7 12  1  0
 12  8  1  6
 12 13  1  0
 11 14  2  0
 13 15  1  1
 10 16  1  0
 13 16  1  0
 11 17  1  0
 15 17  1  0
 14 18  1  0
 17 19  1  0
 18 19  1  0
M  END
$$$$
15
     RDKit          3D

 19 21  0  0  0  0  0  0  0  0999 V2000
   13.9889   37.4810   20.9504 O   0  0  0  0  0  0  0  0  0  0  0  0
   14.4243   36.4285   20.4001 S   0  0  0  0  0  0  0  0  0  0  0  0
   14.7583   36.7013   18.8253 N   0  0  0  0  0  0  0  0  0  0  0  0
   13.4481   35.1008   20.1293 C   0  0  0  0  0  0  0  0  0  0  0  0
   14.4433   35.5557   18.0401 C   0  0  2  0  0  0  0  0  0  0  0  0
   14.7289   35.4053   16.7430 N   0  0  0  0  0  0  0  0  0  0  0  0
   13.6521   34.6506   18.7871 C   0  0  2  0  0  0  0  0  0  0  0  0
   14.2711   34.3118   16.1922 C   0  0  1  0  0  0  0  0  0  0  0  0
   13.0463   33.5177   18.1574 C   0  0  0  0  0  0  0  0  0  0  0  0
   13.4433   33.3507   16.8004 C   0  0  0  0  0  0  0  0  0  0  0  0
   15.7193   36.1437   21.0793 O   0  0  0  0  0  0  0  0  0  0  0  0
   14.5104   34.1098   14.8010 O   0  0  0  0  0  0  0  0  0  0  0  0
   13.5947   34.4321   13.8442 C   0  0  2  0  0  0  0  0  0  0  0  0
   12.6797   35.2785   13.9067 C   0  0  0  0  0  0  0  0  0  0  0  0
   12.0324   35.5489   12.9558 C   0  0  0  0  0  0  0  0  0  0  0  0
   13.6955   33.5625   12.7055 C   0  0  0  0  0  0  0  0  0  0  0  0
   12.8658   33.7413   11.6664 C   0  0  1  0  0  0  0  0  0  0  0  0
   11.9754   34.8071   11.7420 C   0  0  0  0  0  0  0  0  0  0  0  0
   12.8982   32.8538   10.2192 Cl  0  0  0  0  0  0  0  0  0  0  0  0
  1  2  2  0
  2  3  1  0
  2  4  1  0
  5  3  1  6
  5  6  1  0
  7  4  1  6
  5  7  1  0
  6  8  1  0
  7  9  1  0
  8 10  1  0
  9 10  1  0
  2 11  2  0
  8 12  1  6
 13 12  1  1
 13 14  1  0
 14 15  1  0
 13 16  1  0
 16 17  1  0
 15 18  1  0
 17 18  1  0
 17 19  1  6
M  END
$$$$
16
     RDKit          3D

 19 20  0  0  0  0  0  0  0  0999 V2000
   14.7242   37.9432   18.9816 O   0  0  0  0  0  0  0  0  0  0  0  0
   14.6736   36.8347   19.3784 S   0  0  0  0  0  0  0  0  0  0  0  0
   14.1436   36.6336   20.8292 N   0  0  0  0  0  0  0  0  0  0  0  0
   16.0951   36.1422   19.2195 O   0  0  0  0  0  0  0  0  0  0  0  0
   13.7745   35.7960   18.4711 C   0  0  2  0  0  0  0  0  0  0  0  0
   13.3530   34.4682   18.8567 C   0  0  1  0  0  0  0  0  0  0  0  0
   13.7422   34.0217   20.2145 O   0  0  0  0  0  0  0  0  0  0  0  0
   12.4043   33.6875   18.2913 C   0  0  1  0  0  0  0  0  0  0  0  0
   12.0250   33.8945   16.9393 C   0  0  0  0  0  0  0  0  0  0  0  0
   11.0883   32.9861   16.2940 C   0  0  2  0  0  0  0  0  0  0  0  0
   12.5297   34.9526   16.1249 C   0  0  0  0  0  0  0  0  0  0  0  0
   13.3161   36.1458   17.0267 C   0  0  0  0  0  0  0  0  0  0  0  0
   11.4614   32.2070   15.1456 C   0  0  0  0  0  0  0  0  0  0  0  0
    9.6889   33.2972   16.2220 C   0  0  1  0  0  0  0  0  0  0  0  0
   12.0059   32.4005   18.8524 O   0  0  0  0  0  0  0  0  0  0  0  0
    8.8051   32.6648   15.3912 C   0  0  0  0  0  0  0  0  0  0  0  0
    9.0725   34.1406   17.3478 C   0  0  0  0  0  0  0  0  0  0  0  0
   10.5662   31.5835   14.2632 C   0  0  0  0  0  0  0  0  0  0  0  0
    9.2343   31.9623   14.3144 C   0  0  0  0  0  0  0  0  0  0  0  0
  1  2  2  0
  2  3  1  0
  2  4  2  0
  5  2  1  6
  5  6  1  0
  6  7  1  1
  6  8  1  0
  8  9  1  0
 10  9  1  6
  9 11  1  0
  5 12  1  0
 11 12  1  0
 10 13  1  0
 10 14  1  0
  8 15  1  6
 14 16  1  0
 14 17  1  1
 13 18  1  0
 16 19  1  0
 18 19  1  0
M  END
$$$$
17
     RDKit          3D

 19 21  0  0  0  0  0  0  0  0999 V2000
   14.2048   37.3561   20.7209 O   0  0  0  0  0  0  0  0  0  0  0  0
   14.5372   36.2818   20.2192 C   0  0  0  0  0  0  0  0  0  0  0  0
   13.6665   35.5688   19.3163 C   0  0  1  0  0  0  0  0  0  0  0  0
   15.6545   35.7845   20.6786 O   0  0  0  0  0  0  0  0  0  0  0  0
   13.5745   35.9703   18.0044 C   0  0  0  0  0  0  0  0  0  0  0  0
   12.8730   35.0902   17.0331 C   0  0  0  0  0  0  0  0  0  0  0  0
   12.7270   35.4425   15.6641 C   0  0  0  0  0  0  0  0  0  0  0  0
   12.3456   33.8019   17.4690 C   0  0  0  0  0  0  0  0  0  0  0  0
   13.0407   36.6019   15.1536 O   0  0  0  0  0  0  0  0  0  0  0  0
   13.1313   34.2585   19.6690 C   0  0  0  0  0  0  0  0  0  0  0  0
   11.7572   33.1285   16.3545 C   0  0  2  0  0  0  0  0  0  0  0  0
   12.4746   33.4404   18.7623 C   0  0  0  0  0  0  0  0  0  0  0  0
   12.0336   34.3571   14.9804 C   0  0  1  0  0  0  0  0  0  0  0  0
   11.0822   32.0108   16.1694 C   0  0  0  0  0  0  0  0  0  0  0  0
   10.4494   31.8383   14.8953 C   0  0  0  0  0  0  0  0  0  0  0  0
   10.6673   32.7684   13.7670 C   0  0  2  0  0  0  0  0  0  0  0  0
   11.3390   33.9544   13.8975 C   0  0  0  0  0  0  0  0  0  0  0  0
   10.0208   32.4246   12.4902 O   0  0  0  0  0  0  0  0  0  0  0  0
   10.3196   31.2965   11.9297 C   0  0  0  0  0  0  0  0  0  0  0  0
  1  2  2  0
  3  2  1  6
  2  4  1  0
  3  5  1  0
  5  6  1  0
  6  7  1  0
  6  8  1  0
  7  9  2  0
  3 10  1  0
  8 11  1  0
  8 12  1  0
 10 12  1  0
  7 13  1  0
 11 13  1  0
 11 14  1  1
 14 15  1  0
 15 16  1  0
 13 17  1  1
 16 17  1  0
 16 18  1  1
 18 19  1  0
M  END
$$$$
18
     RDKit          3D

 20 22  0  0  0  0  0  0  0  0999 V2000
   14.2048   37.3561   20.7209 O   0  0  0  0  0  0  0  0  0  0  0  0
   14.5372   36.2818   20.2192 C   0  0  0  0  0  0  0  0  0  0  0  0
   13.6665   35.5688   19.3163 C   0  0  1  0  0  0  0  0  0  0  0  0
   15.6545   35.7845   20.6786 O   0  0  0  0  0  0  0  0  0  0  0  0
   13.5745   35.9703   18.0044 C   0  0  0  0  0  0  0  0  0  0  0  0
   12.8730   35.0902   17.0331 C   0  0  1  0  0  0  0  0  0  0  0  0
   12.7270   35.4425   15.6641 C   0  0  0  0  0  0  0  0  0  0  0  0
   12.7489   34.5964   14.6853 C   0  0  2  0  0  0  0  0  0  0  0  0
   12.5623   33.8414   17.5136 C   0  0  1  0  0  0  0  0  0  0  0  0
   12.6171   34.9661   13.2693 C   0  0  1  0  0  0  0  0  0  0  0  0
   13.0095   34.3835   19.7656 C   0  0  0  0  0  0  0  0  0  0  0  0
   11.8196   35.8937   12.9748 O   0  0  0  0  0  0  0  0  0  0  0  0
   13.4427   34.4421   12.2838 C   0  0  1  0  0  0  0  0  0  0  0  0
   12.4984   33.5139   18.8403 C   0  0  0  0  0  0  0  0  0  0  0  0
   13.7724   32.9753   12.4570 C   0  0  0  0  0  0  0  0  0  0  0  0
   12.0251   33.0602   16.3414 C   0  0  0  0  0  0  0  0  0  0  0  0
   13.5557   32.4639   13.7271 N   0  0  0  0  0  0  0  0  0  0  0  0
   14.3776   32.3414   11.3542 O   0  0  0  0  0  0  0  0  0  0  0  0
   12.7766   33.1669   14.8091 C   0  0  2  0  0  0  0  0  0  0  0  0
   13.1732   34.5851   10.8497 N   0  0  0  0  0  0  0  0  0  0  0  0
  1  2  2  0
  3  2  1  6
  2  4  1  0
  3  5  1  0
  6  5  1  6
  6  7  1  0
  8  7  1  1
  6  9  1  0
  8 10  1  0
  3 11  1  0
 10 12  1  1
 10 13  1  0
  9 14  1  1
 11 14  1  0
 13 15  1  0
  9 16  1  0
 15 17  1  0
 15 18  2  0
  8 19  1  0
 19 16  1  1
 17 19  1  0
 13 20  1  6
M  END
$$$$
19
     RDKit          3D

 20 22  0  0  0  0  0  0  0  0999 V2000
   14.2048   37.3561   20.7209 N   0  0  0  0  0  0  0  0  0  0  0  0
   13.8791   36.1445   20.9300 C   0  0  0  0  0  0  0  0  0  0  0  0
   14.6945   37.5261   19.3968 N   0  0  0  0  0  0  0  0  0  0  0  0
   13.8893   35.3438   20.1444 C   0  0  2  0  0  0  0  0  0  0  0  0
   14.3654   35.8989   18.8179 C   0  0  2  0  0  0  0  0  0  0  0  0
   14.6332   35.5841   17.5075 C   0  0  0  0  0  0  0  0  0  0  0  0
   14.3254   34.1667   17.3375 C   0  0  1  0  0  0  0  0  0  0  0  0
   13.7545   33.4367   18.4719 C   0  0  0  0  0  0  0  0  0  0  0  0
   13.5564   33.9362   19.7726 C   0  0  0  0  0  0  0  0  0  0  0  0
   13.0892   35.8828   22.1049 O   0  0  0  0  0  0  0  0  0  0  0  0
   14.4692   33.5623   16.0888 N   0  0  0  0  0  0  0  0  0  0  0  0
   13.6354   33.8829   15.0185 C   0  0  0  0  0  0  0  0  0  0  0  0
   13.5330   35.0187   14.6332 O   0  0  0  0  0  0  0  0  0  0  0  0
   13.2718   32.8079   14.1505 N   0  0  0  0  0  0  0  0  0  0  0  0
   12.9139   32.9222   12.7862 C   0  0  0  0  0  0  0  0  0  0  0  0
   13.9458   33.2165   11.9249 C   0  0  0  0  0  0  0  0  0  0  0  0
   14.2024   32.1860   10.9587 C   0  0  0  0  0  0  0  0  0  0  0  0
   11.6289   32.5825   12.4012 C   0  0  0  0  0  0  0  0  0  0  0  0
   11.6112   31.8641   11.1101 C   0  0  0  0  0  0  0  0  0  0  0  0
   12.8215   31.7866   10.3495 C   0  0  0  0  0  0  0  0  0  0  0  0
  1  2  1  0
  1  3  1  0
  2  4  1  0
  3  5  1  0
  4  5  1  0
  5  6  1  1
  6  7  1  0
  7  8  1  0
  4  9  1  6
  8  9  1  0
  2 10  2  0
  7 11  1  6
 11 12  1  0
 12 13  2  0
 12 14  1  0
 14 15  1  0
 15 16  1  0
 16 17  1  0
 15 18  1  0
 18 19  1  0
 17 20  1  0
 19 20  1  0
M  END
$$$$
2
     RDKit          3D

 16 17  0  0  0  0  0  0  0  0999 V2000
   14.0587   37.3627   21.3545 O   0  0  0  0  0  0  0  0  0  0  0  0
   14.3886   36.4086   20.6095 S   0  0  0  0  0  0  0  0  0  0  0  0
   15.7244   35.8759   20.9518 O   0  0  0  0  0  0  0  0  0  0  0  0
   13.5411   35.2306   20.2447 N   0  0  0  0  0  0  0  0  0  0  0  0
   14.4614   37.1573   19.0264 C   0  0  2  0  0  0  0  0  0  0  0  0
   13.3219   34.5405   19.1099 C   0  0  1  0  0  0  0  0  0  0  0  0
   13.6792   35.1924   17.8748 C   0  0  0  0  0  0  0  0  0  0  0  0
   13.4054   34.5197   16.6173 C   0  0  0  0  0  0  0  0  0  0  0  0
   13.0134   33.1763   18.8978 C   0  0  0  0  0  0  0  0  0  0  0  0
   14.3236   36.4586   17.8902 N   0  0  0  0  0  0  0  0  0  0  0  0
   12.9569   33.2846   16.5647 C   0  0  0  0  0  0  0  0  0  0  0  0
   14.8521   38.4583   19.0736 O   0  0  0  0  0  0  0  0  0  0  0  0
   12.6938   32.5788   17.7865 C   0  0  0  0  0  0  0  0  0  0  0  0
   12.6613   32.4832   15.3318 C   0  0  0  0  0  0  0  0  0  0  0  0
   11.5680   31.8851   15.1132 O   0  0  0  0  0  0  0  0  0  0  0  0
   13.4087   32.6761   14.3263 O   0  0  0  0  0  0  0  0  0  0  0  0
  1  2  2  0
  2  3  2  0
  2  4  1  0
  2  5  1  0
  4  6  1  0
  6  7  1  0
  7  8  1  0
  6  9  1  1
  5 10  1  0
  7 10  1  0
  8 11  1  0
  5 12  1  6
  9 13  1  0
 11 13  1  0
 11 14  1  0
 14 15  1  0
 14 16  2  0
M  END
$$$$
20
     RDKit          3D

 20 24  0  0  0  0  0  0  0  0999 V2000
   15.0537   37.4130   20.3918 N   0  0  0  0  0  0  0  0  0  0  0  0
   14.1953   36.4566   20.2995 C   0  0  2  0  0  0  0  0  0  0  0  0
   15.7393   37.5033   19.2441 N   0  0  0  0  0  0  0  0  0  0  0  0
   13.3441   35.9069   21.3422 C   0  0  0  0  0  0  0  0  0  0  0  0
   14.3523   35.8137   18.9866 C   0  0  1  0  0  0  0  0  0  0  0  0
   15.3217   36.5276   18.3593 N   0  0  0  0  0  0  0  0  0  0  0  0
   12.6239   34.7388   20.9838 C   0  0  2  0  0  0  0  0  0  0  0  0
   13.6271   34.6001   18.7933 C   0  0  0  0  0  0  0  0  0  0  0  0
   11.7813   34.1142   21.8620 O   0  0  0  0  0  0  0  0  0  0  0  0
   10.8983   33.2085   21.2211 C   0  0  0  0  0  0  0  0  0  0  0  0
   13.7491   33.9750   17.5002 C   0  0  0  0  0  0  0  0  0  0  0  0
   12.8429   34.0752   19.7828 C   0  0  2  0  0  0  0  0  0  0  0  0
   11.9929   33.0467   19.1425 C   0  0  1  0  0  0  0  0  0  0  0  0
   14.5599   34.4345   16.5530 C   0  0  0  0  0  0  0  0  0  0  0  0
   12.2972   32.6758   17.9554 C   0  0  0  0  0  0  0  0  0  0  0  0
   11.0678   32.6315   20.0753 C   0  0  0  0  0  0  0  0  0  0  0  0
   13.1072   33.0699   17.0536 N   0  0  0  0  0  0  0  0  0  0  0  0
   14.4406   33.4994   15.3803 N   0  0  0  0  0  0  0  0  0  0  0  0
   13.4020   32.7078   15.7703 C   0  0  0  0  0  0  0  0  0  0  0  0
   12.8378   31.8203   15.0211 O   0  0  0  0  0  0  0  0  0  0  0  0
  1  2  1  0
  1  3  1  0
  2  4  1  1
  2  5  1  0
  3  6  1  0
  5  6  1  1
  7  4  1  1
  5  8  1  0
  7  9  1  0
  9 10  1  0
  8 11  1  0
  7 12  1  0
 12  8  1  6
 12 13  1  0
 11 14  2  0
 13 15  1  1
 10 16  1  0
 13 16  1  0
 11 17  1  0
 15 17  1  0
 14 18  1  0
 17 19  1  0
 18 19  1  0
 19 20  2  0
M  END
$$$$
21
     RDKit          3D

 20 22  0  0  0  0  0  0  0  0999 V2000
   15.5264   37.3056   20.5482 N   0  0  0  0  0  0  0  0  0  0  0  0
   14.3323   36.7974   20.7227 C   0  0  1  0  0  0  0  0  0  0  0  0
   15.9746   37.0291   19.2522 N   0  0  0  0  0  0  0  0  0  0  0  0
   14.0731   35.8818   19.6623 C   0  0  2  0  0  0  0  0  0  0  0  0
   15.1445   36.0623   18.7688 C   0  0  1  0  0  0  0  0  0  0  0  0
   13.4762   36.5940   21.7933 C   0  0  0  0  0  0  0  0  0  0  0  0
   12.9134   34.9874   19.4302 C   0  0  0  0  0  0  0  0  0  0  0  0
   12.2817   35.8354   21.7413 C   0  0  0  0  0  0  0  0  0  0  0  0
   15.2737   35.4705   17.5009 N   0  0  0  0  0  0  0  0  0  0  0  0
   14.1710   35.1512   16.7391 C   0  0  1  0  0  0  0  0  0  0  0  0
   14.2983   34.4191   15.6256 C   0  0  0  0  0  0  0  0  0  0  0  0
   12.0916   34.9557   20.5915 C   0  0  0  0  0  0  0  0  0  0  0  0
   12.6743   34.2353   18.1871 C   0  0  1  0  0  0  0  0  0  0  0  0
   14.5142   35.0972   14.4576 O   0  0  0  0  0  0  0  0  0  0  0  0
   11.7898   33.2083   18.3527 C   0  0  0  0  0  0  0  0  0  0  0  0
   13.8570   33.1951   15.6184 O   0  0  0  0  0  0  0  0  0  0  0  0
   10.4141   33.4593   18.0823 C   0  0  0  0  0  0  0  0  0  0  0  0
    9.5391   33.4911   19.0489 O   0  0  0  0  0  0  0  0  0  0  0  0
    9.9821   33.9767   16.8987 C   0  0  0  0  0  0  0  0  0  0  0  0
   12.7695   35.1102   17.2158 C   0  0  0  0  0  0  0  0  0  0  0  0
  1  2  1  0
  1  3  1  0
  2  4  1  0
  5  3  1  6
  4  5  1  0
  2  6  1  1
  4  7  1  6
  6  8  1  0
  5  9  1  0
  9 10  1  0
 10 11  1  1
  7 12  1  0
  8 12  1  0
  7 13  1  0
 11 14  1  0
 13 15  1  1
 11 16  2  0
 15 17  1  0
 17 18  1  0
 17 19  2  0
 10 20  1  0
 13 20  1  0
M  END
$$$$
22
     RDKit          3D

 20 22  0  0  0  0  0  0  0  0999 V2000
   14.3059   37.3963   21.0499 N   0  0  0  0  0  0  0  0  0  0  0  0
   15.0801   36.8191   19.9811 C   0  0  0  0  0  0  0  0  0  0  0  0
   14.4992   35.7271   19.3427 N   0  0  0  0  0  0  0  0  0  0  0  0
   13.4316   35.3032   20.1946 C   0  0  2  0  0  0  0  0  0  0  0  0
   14.5579   35.3709   18.1311 C   0  0  0  0  0  0  0  0  0  0  0  0
   13.4282   36.2960   21.2544 C   0  0  0  0  0  0  0  0  0  0  0  0
   12.6487   34.0940   20.1141 C   0  0  0  0  0  0  0  0  0  0  0  0
   13.0521   33.3352   18.9717 C   0  0  1  0  0  0  0  0  0  0  0  0
   12.5413   36.3449   22.3040 O   0  0  0  0  0  0  0  0  0  0  0  0
   12.1259   32.5896   18.4128 O   0  0  0  0  0  0  0  0  0  0  0  0
   10.9834   33.1993   17.9554 C   0  0  1  0  0  0  0  0  0  0  0  0
   13.8534   34.0463   17.8491 C   0  0  0  0  0  0  0  0  0  0  0  0
   10.6209   33.2139   16.6506 C   0  0  0  0  0  0  0  0  0  0  0  0
   10.0479   33.6808   18.9006 C   0  0  0  0  0  0  0  0  0  0  0  0
    9.6244   33.6996   16.2900 C   0  0  2  0  0  0  0  0  0  0  0  0
    8.5878   34.1357   17.2150 C   0  0  0  0  0  0  0  0  0  0  0  0
    8.8904   34.1099   18.4893 C   0  0  0  0  0  0  0  0  0  0  0  0
   15.9301   37.5669   19.2531 O   0  0  0  0  0  0  0  0  0  0  0  0
    9.2325   33.7118   14.8380 O   0  0  0  0  0  0  0  0  0  0  0  0
   10.0216   33.0778   14.1001 C   0  0  0  0  0  0  0  0  0  0  0  0
  1  2  1  0
  2  3  1  0
  3  4  1  0
  3  5  1  0
  1  6  1  0
  4  6  1  0
  4  7  1  1
  7  8  1  0
  6  9  2  0
  8 10  1  6
 11 10  1  1
  5 12  1  0
  8 12  1  0
 11 13  1  0
 11 14  1  0
 13 15  1  0
 15 16  1  0
 14 17  1  0
 16 17  1  0
  2 18  2  0
 15 19  1  6
 19 20  1  0
M  END
$$$$
23
     RDKit          3D

 20 23  0  0  0  0  0  0  0  0999 V2000
   13.9889   37.4810   20.9504 O   0  0  0  0  0  0  0  0  0  0  0  0
   14.4243   36.4285   20.4001 S   0  0  0  0  0  0  0  0  0  0  0  0
   13.7427   35.2412   20.2122 N   0  0  0  0  0  0  0  0  0  0  0  0
   12.7598   34.7498   21.0491 C   0  0  0  0  0  0  0  0  0  0  0  0
   11.6352   34.0218   20.3477 C   0  0  2  0  0  0  0  0  0  0  0  0
   15.0282   36.8905   18.9539 N   0  0  0  0  0  0  0  0  0  0  0  0
   10.7040   33.3721   20.9667 C   0  0  0  0  0  0  0  0  0  0  0  0
   15.5500   36.2602   21.4613 O   0  0  0  0  0  0  0  0  0  0  0  0
   12.3005   33.4530   19.1202 C   0  0  1  0  0  0  0  0  0  0  0  0
   10.0088   32.3646   20.4350 C   0  0  0  0  0  0  0  0  0  0  0  0
   11.5533   32.5719   18.3284 C   0  0  0  0  0  0  0  0  0  0  0  0
   11.8640   32.1034   17.0818 C   0  0  0  0  0  0  0  0  0  0  0  0
   10.3087   32.1028   19.0344 C   0  0  0  0  0  0  0  0  0  0  0  0
   13.3413   34.1873   18.5341 C   0  0  1  0  0  0  0  0  0  0  0  0
   14.0462   34.6794   18.9606 C   0  0  1  0  0  0  0  0  0  0  0  0
   13.0028   32.7745   16.4630 C   0  0  1  0  0  0  0  0  0  0  0  0
   13.7116   33.4861   17.1702 C   0  0  0  0  0  0  0  0  0  0  0  0
   14.7696   35.9248   18.2567 C   0  0  0  0  0  0  0  0  0  0  0  0
   13.3480   32.4559   15.2118 O   0  0  0  0  0  0  0  0  0  0  0  0
   12.3347   31.7713   14.4098 C   0  0  0  0  0  0  0  0  0  0  0  0
  1  2  2  0
  2  3  1  0
  3  4  1  0
  5  4  1  1
  2  6  1  0
  5  7  1  0
  2  8  2  0
  5  9  1  0
  7 10  1  0
  9 11  1  6
 11 12  1  0
 10 13  1  0
 11 13  1  0
  9 14  1  0
  3 15  1  0
 14 15  1  0
 12 16  1  0
 14 17  1  6
 16 17  1  0
  6 18  1  0
 15 18  1  6
 16 19  1  1
 19 20  1  0
M  END
$$$$
24
     RDKit          3D

 20 21  0  0  0  0  0  0  0  0999 V2000
   13.7440   37.2699   20.6884 O   0  0  0  0  0  0  0  0  0  0  0  0
   14.8235   36.8113   20.1767 S   0  0  0  0  0  0  0  0  0  0  0  0
   14.4722   35.5369   19.1700 C   0  0  1  0  0  0  0  0  0  0  0  0
   13.5508   34.4712   19.6199 C   0  0  0  0  0  0  0  0  0  0  0  0
   13.0748   33.5836   18.6121 C   0  0  0  0  0  0  0  0  0  0  0  0
   14.6779   35.6149   17.6792 C   0  0  0  0  0  0  0  0  0  0  0  0
   15.8652   36.1858   21.1076 O   0  0  0  0  0  0  0  0  0  0  0  0
   15.7326   37.6563   19.0857 N   0  0  0  0  0  0  0  0  0  0  0  0
   14.1970   34.6115   16.8252 C   0  0  1  0  0  0  0  0  0  0  0  0
   12.1650   32.4478   19.1077 F   0  0  0  0  0  0  0  0  0  0  0  0
   13.3745   33.6152   17.3215 C   0  0  0  0  0  0  0  0  0  0  0  0
   14.5479   34.6978   15.3056 C   0  0  1  0  0  0  0  0  0  0  0  0
   14.4068   33.5736   14.6696 O   0  0  0  0  0  0  0  0  0  0  0  0
   13.5544   35.6550   14.6876 C   0  0  0  0  0  0  0  0  0  0  0  0
   13.6549   35.6199   13.2516 C   0  0  0  0  0  0  0  0  0  0  0  0
   12.9858   36.5237   12.5164 C   0  0  0  0  0  0  0  0  0  0  0  0
   13.2151   36.4382   11.0019 C   0  0  0  0  0  0  0  0  0  0  0  0
   14.4181   35.9530   10.5604 C   0  0  0  0  0  0  0  0  0  0  0  0
   15.0751   34.9542   11.3019 C   0  0  0  0  0  0  0  0  0  0  0  0
   14.7299   34.8403   12.6588 C   0  0  0  0  0  0  0  0  0  0  0  0
  1  2  2  0
  3  2  1  6
  3  4  1  0
  4  5  1  0
  3  6  1  0
  2  7  2  0
  2  8  1  0
  9  6  1  6
  5 10  1  0
  5 11  1  0
  9 11  1  0
  9 12  1  0
 12 13  1  6
 12 14  1  0
 14 15  1  0
 15 16  2  0
 16 17  1  0
 17 18  1  0
 18 19  1  0
 15 20  1  0
 19 20  1  0
M  END
$$$$
25
     RDKit          3D

 20 23  0  0  0  0  0  0  0  0999 V2000
   15.5264   37.3056   20.5482 N   0  0  0  0  0  0  0  0  0  0  0  0
   14.3323   36.7974   20.7227 C   0  0  0  0  0  0  0  0  0  0  0  0
   13.9344   35.7518   19.8117 C   0  0  2  0  0  0  0  0  0  0  0  0
   15.9141   36.8613   19.2277 N   0  0  0  0  0  0  0  0  0  0  0  0
   13.3807   37.1882   21.7859 O   0  0  0  0  0  0  0  0  0  0  0  0
   15.0713   35.9976   18.7447 C   0  0  1  0  0  0  0  0  0  0  0  0
   15.1227   35.2376   17.4789 C   0  0  0  0  0  0  0  0  0  0  0  0
   16.0381   35.4080   16.6166 N   0  0  0  0  0  0  0  0  0  0  0  0
   12.9859   34.8688   19.4676 C   0  0  2  0  0  0  0  0  0  0  0  0
   14.0424   34.2986   17.3559 C   0  0  0  0  0  0  0  0  0  0  0  0
   11.9641   34.5899   20.4596 C   0  0  0  0  0  0  0  0  0  0  0  0
   13.0505   34.0920   18.3286 C   0  0  2  0  0  0  0  0  0  0  0  0
   14.0666   33.5854   16.0579 C   0  0  0  0  0  0  0  0  0  0  0  0
   13.1483   32.7113   15.7620 N   0  0  0  0  0  0  0  0  0  0  0  0
   11.9458   33.0823   18.1682 C   0  0  2  0  0  0  0  0  0  0  0  0
   12.0936   32.5509   16.7634 C   0  0  1  0  0  0  0  0  0  0  0  0
   11.0465   32.8816   19.0366 C   0  0  0  0  0  0  0  0  0  0  0  0
   11.1210   31.8277   16.0799 O   0  0  0  0  0  0  0  0  0  0  0  0
   11.0235   33.5971   20.2031 C   0  0  0  0  0  0  0  0  0  0  0  0
   10.8406   32.1544   14.8669 C   0  0  0  0  0  0  0  0  0  0  0  0
  1  2  1  0
  3  2  1  6
  1  4  1  0
  2  5  1  0
  3  6  1  0
  6  4  1  1
  6  7  1  0
  7  8  1  0
  3  9  1  0
  7 10  1  0
  9 11  1  1
  9 12  1  0
 12 10  1  6
 10 13  1  0
 13 14  1  0
 12 15  1  0
 14 16  1  0
 15 16  1  0
 15 17  1  6
 16 18  1  6
 11 19  1  0
 17 19  1  0
 18 20  1  0
M  END
$$$$
26
     RDKit          3D

 20 22  0  0  0  0  0  0  0  0999 V2000
   13.7440   37.2699   20.6884 O   0  0  0  0  0  0  0  0  0  0  0  0
   14.8235   36.8113   20.1767 S   0  0  0  0  0  0  0  0  0  0  0  0
   14.4722   35.5369   19.1700 C   0  0  1  0  0  0  0  0  0  0  0  0
   13.5508   34.4712   19.6199 C   0  0  0  0  0  0  0  0  0  0  0  0
   13.0748   33.5836   18.6121 C   0  0  0  0  0  0  0  0  0  0  0  0
   14.6779   35.6149   17.6792 C   0  0  0  0  0  0  0  0  0  0  0  0
   15.8652   36.1858   21.1076 O   0  0  0  0  0  0  0  0  0  0  0  0
   15.7326   37.6563   19.0857 N   0  0  0  0  0  0  0  0  0  0  0  0
   14.1970   34.6115   16.8252 C   0  0  0  0  0  0  0  0  0  0  0  0
   13.3762   33.6002   17.3048 C   0  0  2  0  0  0  0  0  0  0  0  0
   12.7215   32.6277   16.3709 C   0  0  2  0  0  0  0  0  0  0  0  0
   13.3758   32.3146   15.2673 O   0  0  0  0  0  0  0  0  0  0  0  0
   11.3583   32.8832   16.0451 C   0  0  1  0  0  0  0  0  0  0  0  0
   11.0130   32.4085   14.7958 C   0  0  1  0  0  0  0  0  0  0  0  0
    9.8948   32.5560   14.1101 C   0  0  0  0  0  0  0  0  0  0  0  0
   12.3501   31.8484   14.2914 C   0  0  0  0  0  0  0  0  0  0  0  0
    8.8110   33.1735   14.8088 C   0  0  0  0  0  0  0  0  0  0  0  0
   10.1246   33.2855   16.7045 C   0  0  0  0  0  0  0  0  0  0  0  0
    9.0072   33.4072   16.0866 C   0  0  0  0  0  0  0  0  0  0  0  0
   12.5085   31.2377   13.2793 O   0  0  0  0  0  0  0  0  0  0  0  0
  1  2  2  0
  3  2  1  6
  3  4  1  0
  4  5  1  0
  3  6  1  0
  2  7  2  0
  2  8  1  0
  6  9  1  0
 10  5  1  6
  9 10  1  0
 10 11  1  0
 11 12  1  6
 11 13  1  0
 13 14  1  0
 14 15  1  6
 12 16  1  0
 14 16  1  0
 15 17  1  0
 13 18  1  1
 17 19  1  0
 18 19  1  0
 16 20  2  0
M  END
$$$$
27
     RDKit          3D

 21 23  0  0  0  0  0  0  0  0999 V2000
   13.7440   37.2699   20.6884 O   0  0  0  0  0  0  0  0  0  0  0  0
   14.8235   36.8113   20.1767 S   0  0  0  0  0  0  0  0  0  0  0  0
   14.4722   35.5369   19.1700 C   0  0  1  0  0  0  0  0  0  0  0  0
   13.5508   34.4712   19.6199 C   0  0  0  0  0  0  0  0  0  0  0  0
   13.0748   33.5836   18.6121 C   0  0  2  0  0  0  0  0  0  0  0  0
   14.6779   35.6149   17.6792 C   0  0  0  0  0  0  0  0  0  0  0  0
   15.8652   36.1858   21.1076 O   0  0  0  0  0  0  0  0  0  0  0  0
   15.7326   37.6563   19.0857 N   0  0  0  0  0  0  0  0  0  0  0  0
   14.1970   34.6115   16.8252 C   0  0  0  0  0  0  0  0  0  0  0  0
   13.3762   33.6002   17.3048 C   0  0  2  0  0  0  0  0  0  0  0  0
   12.7215   32.6277   16.3709 C   0  0  2  0  0  0  0  0  0  0  0  0
   13.3758   32.3146   15.2673 O   0  0  0  0  0  0  0  0  0  0  0  0
   11.3583   32.8832   16.0451 C   0  0  0  0  0  0  0  0  0  0  0  0
   11.0130   32.4085   14.7958 C   0  0  0  0  0  0  0  0  0  0  0  0
   10.3730   33.5581   16.8829 C   0  0  2  0  0  0  0  0  0  0  0  0
   10.6332   33.6768   18.2223 C   0  0  0  0  0  0  0  0  0  0  0  0
   11.8263   33.4313   19.0179 C   0  0  1  0  0  0  0  0  0  0  0  0
   11.5489   32.7111   20.3637 C   0  0  0  0  0  0  0  0  0  0  0  0
   12.3645   31.9299   14.2918 C   0  0  0  0  0  0  0  0  0  0  0  0
   12.5715   31.3641   13.1404 O   0  0  0  0  0  0  0  0  0  0  0  0
    9.0271   34.0773   16.3228 C   0  0  0  0  0  0  0  0  0  0  0  0
  1  2  2  0
  3  2  1  6
  3  4  1  0
  5  4  1  6
  3  6  1  0
  2  7  2  0
  2  8  1  0
  6  9  1  0
  5 10  1  0
 10  9  1  6
 10 11  1  0
 11 12  1  6
 11 13  1  0
 13 14  1  0
 13 15  1  0
 15 16  1  0
  5 17  1  0
 16 17  1  0
 17 18  1  6
 12 19  1  0
 14 19  1  0
 19 20  2  0
 15 21  1  1
M  END
$$$$
28
     RDKit          3D

 21 22  0  0  0  0  0  0  0  0999 V2000
   14.2416   37.5517   20.2016 O   0  0  0  0  0  0  0  0  0  0  0  0
   14.6682   36.4807   19.8442 C   0  0  0  0  0  0  0  0  0  0  0  0
   13.6986   35.5497   19.3490 C   0  0  2  0  0  0  0  0  0  0  0  0
   15.9303   36.4127   19.3203 O   0  0  0  0  0  0  0  0  0  0  0  0
   13.1421   34.6481   20.3964 C   0  0  0  0  0  0  0  0  0  0  0  0
   12.2881   33.5994   20.0130 C   0  0  0  0  0  0  0  0  0  0  0  0
   13.2603   35.2135   18.0414 C   0  0  0  0  0  0  0  0  0  0  0  0
   12.4795   34.2231   17.6542 C   0  0  0  0  0  0  0  0  0  0  0  0
   11.9150   33.4359   18.6707 C   0  0  0  0  0  0  0  0  0  0  0  0
   12.1889   33.9572   16.2632 C   0  0  1  0  0  0  0  0  0  0  0  0
   11.1156   33.0621   15.9865 C   0  0  0  0  0  0  0  0  0  0  0  0
   12.7989   34.6731   15.1475 C   0  0  1  0  0  0  0  0  0  0  0  0
   13.8670   35.3072   15.2198 O   0  0  0  0  0  0  0  0  0  0  0  0
   10.7267   32.8961   14.5539 C   0  0  0  0  0  0  0  0  0  0  0  0
   12.5530   34.2128   13.7779 C   0  0  1  0  0  0  0  0  0  0  0  0
   11.4817   33.3386   13.5422 C   0  0  0  0  0  0  0  0  0  0  0  0
   13.3687   34.8390   12.5776 C   0  0  1  0  0  0  0  0  0  0  0  0
   14.0673   35.8727   12.9117 O   0  0  0  0  0  0  0  0  0  0  0  0
   13.9867   33.8837   11.8253 C   0  0  0  0  0  0  0  0  0  0  0  0
   13.7051   32.5786   11.9515 O   0  0  0  0  0  0  0  0  0  0  0  0
   14.9943   34.1860   10.9986 O   0  0  0  0  0  0  0  0  0  0  0  0
  1  2  2  0
  3  2  1  6
  2  4  1  0
  3  5  1  0
  5  6  1  0
  3  7  1  0
  7  8  1  0
  6  9  1  0
  8  9  1  0
 10  8  1  1
 10 11  1  0
 10 12  1  0
 12 13  1  1
 11 14  1  0
 12 15  1  0
 14 16  1  0
 15 16  1  6
 15 17  1  0
 17 18  1  1
 17 19  1  0
 19 20  1  0
 19 21  2  0
M  END
$$$$
29
     RDKit          3D

 21 23  0  0  0  0  0  0  0  0999 V2000
   13.5020   37.2241   21.2476 O   0  0  0  0  0  0  0  0  0  0  0  0
   14.1832   36.3143   20.6575 S   0  0  0  0  0  0  0  0  0  0  0  0
   14.6714   36.6998   19.1596 C   0  0  1  0  0  0  0  0  0  0  0  0
   15.4283   35.8155   21.3963 O   0  0  0  0  0  0  0  0  0  0  0  0
   13.2775   35.0132   20.5294 N   0  0  0  0  0  0  0  0  0  0  0  0
   13.2038   34.2663   19.2720 C   0  0  0  0  0  0  0  0  0  0  0  0
   15.4649   37.7112   19.0878 N   0  0  0  0  0  0  0  0  0  0  0  0
   14.6365   35.6413   18.2169 C   0  0  0  0  0  0  0  0  0  0  0  0
   13.8386   34.5624   18.1440 C   0  0  0  0  0  0  0  0  0  0  0  0
   12.3376   33.0758   19.3475 C   0  0  0  0  0  0  0  0  0  0  0  0
   13.7372   33.7413   16.9071 C   0  0  1  0  0  0  0  0  0  0  0  0
   12.1583   32.4038   18.1335 C   0  0  0  0  0  0  0  0  0  0  0  0
   12.8401   32.6678   17.0330 C   0  0  0  0  0  0  0  0  0  0  0  0
   12.6261   31.8454   15.8786 O   0  0  0  0  0  0  0  0  0  0  0  0
   12.5899   32.4506   14.6387 C   0  0  1  0  0  0  0  0  0  0  0  0
   13.1790   33.7011   14.5551 C   0  0  0  0  0  0  0  0  0  0  0  0
   12.0611   31.6881   13.6377 C   0  0  1  0  0  0  0  0  0  0  0  0
   13.7726   34.3889   15.6292 C   0  0  0  0  0  0  0  0  0  0  0  0
   11.3251   30.5472   13.9404 O   0  0  0  0  0  0  0  0  0  0  0  0
   11.7863   29.4225   13.3246 C   0  0  0  0  0  0  0  0  0  0  0  0
   12.0382   32.0394   12.4084 O   0  0  0  0  0  0  0  0  0  0  0  0
  1  2  2  0
  2  3  1  0
  2  4  2  0
  2  5  1  0
  5  6  1  0
  3  7  1  1
  3  8  1  0
  6  9  1  0
  8  9  1  0
  6 10  1  0
  9 11  1  0
 10 12  1  0
 11 13  1  0
 12 13  1  0
 13 14  1  0
 14 15  1  0
 15 16  1  6
 15 17  1  0
 11 18  1  6
 16 18  1  0
 17 19  1  0
 19 20  1  0
 17 21  1  1
M  END
$$$$
3
     RDKit          3D

 16 17  0  0  0  0  0  0  0  0999 V2000
   10.3865   32.8448   20.0220 C   0  0  0  0  0  0  0  0  0  0  0  0
   11.3371   33.3840   20.5481 C   0  0  0  0  0  0  0  0  0  0  0  0
   12.4333   33.7033   19.6782 C   0  0  0  0  0  0  0  0  0  0  0  0
   12.2891   33.5199   18.5169 C   0  0  0  0  0  0  0  0  0  0  0  0
   10.1238   32.6819   18.7002 C   0  0  0  0  0  0  0  0  0  0  0  0
   11.2044   32.9946   17.8180 C   0  0  0  0  0  0  0  0  0  0  0  0
   13.4356   33.8380   17.4419 C   0  0  0  0  0  0  0  0  0  0  0  0
   14.4306   34.6279   17.8528 O   0  0  0  0  0  0  0  0  0  0  0  0
   13.5033   33.0205   16.4029 N   0  0  0  0  0  0  0  0  0  0  0  0
   11.1193   32.8286   16.4075 C   0  0  2  0  0  0  0  0  0  0  0  0
   12.3038   32.8572   15.6943 C   0  0  0  0  0  0  0  0  0  0  0  0
   10.1449   33.6187   15.7315 C   0  0  0  0  0  0  0  0  0  0  0  0
   12.4520   32.6670   14.3985 C   0  0  0  0  0  0  0  0  0  0  0  0
    8.8622   33.2750   15.8121 C   0  0  0  0  0  0  0  0  0  0  0  0
   13.6697   32.4197   13.6351 O   0  0  0  0  0  0  0  0  0  0  0  0
   11.4049   32.9136   13.3956 O   0  0  0  0  0  0  0  0  0  0  0  0
  1  2  1  0
  2  3  1  0
  3  4  1  0
  1  5  1  0
  4  6  1  0
  5  6  1  0
  4  7  1  0
  7  8  2  0
  7  9  1  0
  6 10  1  0
  9 11  1  0
 10 11  1  0
 10 12  1  6
 11 13  2  3
 12 14  2  0
 13 15  1  0
 13 16  1  0
M  END
$$$$
30
     RDKit          3D

 21 23  0  0  0  0  0  0  0  0999 V2000
   15.5264   37.3056   20.5482 N   0  0  0  0  0  0  0  0  0  0  0  0
   14.3323   36.7974   20.7227 C   0  0  1  0  0  0  0  0  0  0  0  0
   15.9746   37.0291   19.2522 N   0  0  0  0  0  0  0  0  0  0  0  0
   14.0731   35.8818   19.6623 C   0  0  2  0  0  0  0  0  0  0  0  0
   15.1445   36.0623   18.7688 C   0  0  1  0  0  0  0  0  0  0  0  0
   13.4762   36.5940   21.7933 C   0  0  0  0  0  0  0  0  0  0  0  0
   12.9134   34.9874   19.4302 C   0  0  0  0  0  0  0  0  0  0  0  0
   12.2817   35.8354   21.7413 C   0  0  0  0  0  0  0  0  0  0  0  0
   15.2737   35.4705   17.5009 N   0  0  0  0  0  0  0  0  0  0  0  0
   14.1710   35.1512   16.7391 C   0  0  1  0  0  0  0  0  0  0  0  0
   14.2983   34.4191   15.6256 C   0  0  0  0  0  0  0  0  0  0  0  0
   12.0916   34.9557   20.5915 C   0  0  0  0  0  0  0  0  0  0  0  0
   12.6743   34.2353   18.1871 C   0  0  1  0  0  0  0  0  0  0  0  0
   14.5142   35.0972   14.4576 O   0  0  0  0  0  0  0  0  0  0  0  0
   11.7898   33.2083   18.3527 C   0  0  0  0  0  0  0  0  0  0  0  0
   13.8570   33.1951   15.6184 O   0  0  0  0  0  0  0  0  0  0  0  0
   10.4141   33.4593   18.0823 C   0  0  0  0  0  0  0  0  0  0  0  0
    9.8827   33.2068   16.9489 C   0  0  0  0  0  0  0  0  0  0  0  0
   12.7691   35.1252   17.2198 O   0  0  0  0  0  0  0  0  0  0  0  0
    8.4762   33.1779   16.7427 O   0  0  0  0  0  0  0  0  0  0  0  0
   10.3649   33.2571   15.7124 O   0  0  0  0  0  0  0  0  0  0  0  0
  1  2  1  0
  1  3  1  0
  2  4  1  0
  5  3  1  6
  4  5  1  0
  2  6  1  1
  4  7  1  6
  6  8  1  0
  5  9  1  0
  9 10  1  0
 10 11  1  1
  7 12  1  0
  8 12  1  0
  7 13  1  0
 11 14  1  0
 13 15  1  1
 11 16  2  0
 15 17  1  0
 17 18  1  0
 10 19  1  0
 13 19  1  0
 18 20  1  0
 18 21  2  0
M  END
$$$$
31
     RDKit          3D

 21 24  0  0  0  0  0  0  0  0999 V2000
   14.3059   37.3963   21.0499 N   0  0  0  0  0  0  0  0  0  0  0  0
   15.0801   36.8191   19.9811 C   0  0  0  0  0  0  0  0  0  0  0  0
   14.4992   35.7271   19.3427 N   0  0  0  0  0  0  0  0  0  0  0  0
   13.4316   35.3032   20.1946 C   0  0  2  0  0  0  0  0  0  0  0  0
   14.5579   35.3709   18.1311 C   0  0  0  0  0  0  0  0  0  0  0  0
   13.4282   36.2960   21.2544 C   0  0  0  0  0  0  0  0  0  0  0  0
   12.6487   34.0940   20.1141 C   0  0  0  0  0  0  0  0  0  0  0  0
   13.0521   33.3352   18.9717 C   0  0  1  0  0  0  0  0  0  0  0  0
   12.5413   36.3449   22.3040 O   0  0  0  0  0  0  0  0  0  0  0  0
   12.1259   32.5896   18.4128 O   0  0  0  0  0  0  0  0  0  0  0  0
   13.5640   34.2557   17.8032 C   0  0  1  0  0  0  0  0  0  0  0  0
   16.3029   37.3084   19.6346 O   0  0  0  0  0  0  0  0  0  0  0  0
   12.5208   34.6378   16.9828 O   0  0  0  0  0  0  0  0  0  0  0  0
   11.5795   33.6595   16.7423 C   0  0  2  0  0  0  0  0  0  0  0  0
   10.7912   34.1378   15.5495 C   0  0  1  0  0  0  0  0  0  0  0  0
   10.9879   33.0405   17.8082 C   0  0  1  0  0  0  0  0  0  0  0  0
    9.4874   33.9749   15.6312 C   0  0  0  0  0  0  0  0  0  0  0  0
   10.9973   35.5157   15.0887 C   0  0  0  0  0  0  0  0  0  0  0  0
    8.8332   33.4360   16.9272 C   0  0  0  0  0  0  0  0  0  0  0  0
    9.6564   32.9120   17.8632 C   0  0  0  0  0  0  0  0  0  0  0  0
   11.5790   35.5994   14.0147 O   0  0  0  0  0  0  0  0  0  0  0  0
  1  2  1  0
  2  3  1  0
  3  4  1  0
  3  5  1  0
  1  6  1  0
  4  6  1  0
  4  7  1  1
  8  7  1  1
  6  9  2  0
  8 10  1  0
 11  5  1  1
  8 11  1  0
  2 12  2  0
 11 13  1  0
 14 13  1  1
 14 15  1  0
 10 16  1  0
 14 16  1  0
 15 17  1  0
 15 18  1  1
 17 19  1  0
 16 20  1  6
 19 20  1  0
 18 21  2  0
M  END
$$$$
32
     RDKit          3D

 21 24  0  0  0  0  0  0  0  0999 V2000
   14.3059   37.3963   21.0499 N   0  0  0  0  0  0  0  0  0  0  0  0
   15.0801   36.8191   19.9811 C   0  0  0  0  0  0  0  0  0  0  0  0
   14.4992   35.7271   19.3427 N   0  0  0  0  0  0  0  0  0  0  0  0
   13.4316   35.3032   20.1946 C   0  0  2  0  0  0  0  0  0  0  0  0
   14.5579   35.3709   18.1311 C   0  0  0  0  0  0  0  0  0  0  0  0
   13.4282   36.2960   21.2544 C   0  0  0  0  0  0  0  0  0  0  0  0
   12.6487   34.0940   20.1141 C   0  0  0  0  0  0  0  0  0  0  0  0
   13.0521   33.3352   18.9717 C   0  0  1  0  0  0  0  0  0  0  0  0
   12.5413   36.3449   22.3040 O   0  0  0  0  0  0  0  0  0  0  0  0
   12.1259   32.5896   18.4128 O   0  0  0  0  0  0  0  0  0  0  0  0
   13.5640   34.2557   17.8032 C   0  0  1  0  0  0  0  0  0  0  0  0
   16.3029   37.3084   19.6346 O   0  0  0  0  0  0  0  0  0  0  0  0
   12.5208   34.6378   16.9828 O   0  0  0  0  0  0  0  0  0  0  0  0
   11.5795   33.6595   16.7423 C   0  0  2  0  0  0  0  0  0  0  0  0
   10.7912   34.1378   15.5495 C   0  0  1  0  0  0  0  0  0  0  0  0
   10.9879   33.0405   17.8082 C   0  0  1  0  0  0  0  0  0  0  0  0
    9.4874   33.9749   15.6312 C   0  0  0  0  0  0  0  0  0  0  0  0
   10.9973   35.5157   15.0887 C   0  0  0  0  0  0  0  0  0  0  0  0
    8.8332   33.4360   16.9272 C   0  0  0  0  0  0  0  0  0  0  0  0
    9.6200   32.8293   17.8539 C   0  0  0  0  0  0  0  0  0  0  0  0
   10.4117   35.7904   13.9376 O   0  0  0  0  0  0  0  0  0  0  0  0
  1  2  1  0
  2  3  1  0
  3  4  1  0
  3  5  1  0
  1  6  1  0
  4  6  1  0
  4  7  1  1
  8  7  1  1
  6  9  2  0
  8 10  1  0
 11  5  1  1
  8 11  1  0
  2 12  2  0
 11 13  1  0
 14 13  1  1
 14 15  1  0
 10 16  1  0
 14 16  1  0
 15 17  1  0
 15 18  1  1
 17 19  1  0
 16 20  1  6
 19 20  1  0
 18 21  1  0
M  END
$$$$
33
     RDKit          3D

 21 22  0  0  0  0  0  0  0  0999 V2000
   13.7440   37.2699   20.6884 O   0  0  0  0  0  0  0  0  0  0  0  0
   14.8235   36.8113   20.1767 S   0  0  0  0  0  0  0  0  0  0  0  0
   14.4722   35.5369   19.1700 C   0  0  1  0  0  0  0  0  0  0  0  0
   13.5508   34.4712   19.6199 C   0  0  0  0  0  0  0  0  0  0  0  0
   13.0748   33.5836   18.6121 C   0  0  0  0  0  0  0  0  0  0  0  0
   14.6779   35.6149   17.6792 C   0  0  0  0  0  0  0  0  0  0  0  0
   15.8652   36.1858   21.1076 O   0  0  0  0  0  0  0  0  0  0  0  0
   15.7326   37.6563   19.0857 N   0  0  0  0  0  0  0  0  0  0  0  0
   14.1970   34.6115   16.8252 C   0  0  1  0  0  0  0  0  0  0  0  0
   12.1650   32.4478   19.1077 F   0  0  0  0  0  0  0  0  0  0  0  0
   13.3745   33.6152   17.3215 C   0  0  0  0  0  0  0  0  0  0  0  0
   14.5479   34.6978   15.3056 C   0  0  1  0  0  0  0  0  0  0  0  0
   14.4068   33.5736   14.6696 O   0  0  0  0  0  0  0  0  0  0  0  0
   13.5544   35.6550   14.6876 C   0  0  0  0  0  0  0  0  0  0  0  0
   13.6549   35.6199   13.2516 C   0  0  0  0  0  0  0  0  0  0  0  0
   12.9858   36.5237   12.5164 C   0  0  0  0  0  0  0  0  0  0  0  0
   13.2151   36.4382   11.0019 C   0  0  0  0  0  0  0  0  0  0  0  0
   14.4181   35.9530   10.5604 C   0  0  0  0  0  0  0  0  0  0  0  0
   15.0751   34.9542   11.3019 C   0  0  0  0  0  0  0  0  0  0  0  0
   12.6514   36.3391   15.2104 O   0  0  0  0  0  0  0  0  0  0  0  0
   14.8785   34.9538   12.6790 C   0  0  0  0  0  0  0  0  0  0  0  0
  1  2  2  0
  3  2  1  6
  3  4  1  0
  4  5  1  0
  3  6  1  0
  2  7  2  0
  2  8  1  0
  9  6  1  6
  5 10  1  0
  5 11  1  0
  9 11  1  0
  9 12  1  0
 12 13  1  6
 12 14  1  0
 14 15  1  0
 15 16  2  0
 16 17  1  0
 17 18  1  0
 18 19  1  0
 14 20  2  0
 15 21  1  0
 19 21  1  0
M  END
$$$$
34
     RDKit          3D

 21 23  0  0  0  0  0  0  0  0999 V2000
   13.9889   37.4810   20.9504 O   0  0  0  0  0  0  0  0  0  0  0  0
   14.4243   36.4285   20.4001 S   0  0  0  0  0  0  0  0  0  0  0  0
   15.3763   35.6573   21.0849 O   0  0  0  0  0  0  0  0  0  0  0  0
   13.3672   35.2331   19.8800 C   0  0  1  0  0  0  0  0  0  0  0  0
   15.1995   36.8103   18.9508 N   0  0  0  0  0  0  0  0  0  0  0  0
   12.5094   34.6404   20.7259 C   0  0  0  0  0  0  0  0  0  0  0  0
   11.6900   33.6194   20.0623 C   0  0  0  0  0  0  0  0  0  0  0  0
   11.7515   33.2828   18.8041 C   0  0  0  0  0  0  0  0  0  0  0  0
   12.4337   33.9375   18.0227 C   0  0  1  0  0  0  0  0  0  0  0  0
   13.3380   34.8950   18.3849 C   0  0  2  0  0  0  0  0  0  0  0  0
   14.2477   35.4902   17.4541 N   0  0  0  0  0  0  0  0  0  0  0  0
   15.2557   36.2860   18.0500 C   0  0  0  0  0  0  0  0  0  0  0  0
   12.5510   33.6144   16.6095 N   0  0  0  0  0  0  0  0  0  0  0  0
   11.8138   34.1765   15.7248 C   0  0  0  0  0  0  0  0  0  0  0  0
   10.9072   35.0310   16.0603 O   0  0  0  0  0  0  0  0  0  0  0  0
   11.6468   33.6616   14.3076 C   0  0  0  0  0  0  0  0  0  0  0  0
   11.7435   32.2962   14.1475 C   0  0  0  0  0  0  0  0  0  0  0  0
   11.5446   34.6176   13.3148 C   0  0  0  0  0  0  0  0  0  0  0  0
   11.7404   31.8374   12.8134 C   0  0  0  0  0  0  0  0  0  0  0  0
   11.5402   34.0880   12.0172 C   0  0  0  0  0  0  0  0  0  0  0  0
   11.5860   32.7146   11.7732 C   0  0  0  0  0  0  0  0  0  0  0  0
  1  2  2  0
  2  3  2  0
  2  4  1  0
  2  5  1  0
  4  6  1  6
  6  7  1  0
  7  8  1  0
  8  9  1  0
  4 10  1  0
  9 10  1  0
 10 11  1  1
  5 12  2  0
 11 12  1  0
  9 13  1  1
 13 14  1  0
 14 15  2  0
 14 16  1  0
 16 17  1  0
 16 18  1  0
 17 19  1  0
 18 20  1  0
 19 21  1  0
 20 21  1  0
M  END
$$$$
35
     RDKit          3D

 21 22  0  0  0  0  0  0  0  0999 V2000
   13.7440   37.2699   20.6884 O   0  0  0  0  0  0  0  0  0  0  0  0
   14.8235   36.8113   20.1767 S   0  0  0  0  0  0  0  0  0  0  0  0
   14.4722   35.5369   19.1700 C   0  0  1  0  0  0  0  0  0  0  0  0
   13.5508   34.4712   19.6199 C   0  0  0  0  0  0  0  0  0  0  0  0
   13.0748   33.5836   18.6121 C   0  0  0  0  0  0  0  0  0  0  0  0
   14.6779   35.6149   17.6792 C   0  0  0  0  0  0  0  0  0  0  0  0
   15.8652   36.1858   21.1076 O   0  0  0  0  0  0  0  0  0  0  0  0
   15.7326   37.6563   19.0857 N   0  0  0  0  0  0  0  0  0  0  0  0
   14.1970   34.6115   16.8252 C   0  0  1  0  0  0  0  0  0  0  0  0
   12.1650   32.4478   19.1077 F   0  0  0  0  0  0  0  0  0  0  0  0
   13.3745   33.6152   17.3215 C   0  0  0  0  0  0  0  0  0  0  0  0
   14.5479   34.6978   15.3056 C   0  0  1  0  0  0  0  0  0  0  0  0
   14.4068   33.5736   14.6696 O   0  0  0  0  0  0  0  0  0  0  0  0
   13.5544   35.6550   14.6876 C   0  0  1  0  0  0  0  0  0  0  0  0
   13.6549   35.6199   13.2516 C   0  0  0  0  0  0  0  0  0  0  0  0
   12.9858   36.5237   12.5164 C   0  0  0  0  0  0  0  0  0  0  0  0
   13.2151   36.4382   11.0019 C   0  0  0  0  0  0  0  0  0  0  0  0
   14.4181   35.9530   10.5604 C   0  0  0  0  0  0  0  0  0  0  0  0
   12.2502   35.5401   15.2134 O   0  0  0  0  0  0  0  0  0  0  0  0
   15.0950   34.9774   11.3024 C   0  0  0  0  0  0  0  0  0  0  0  0
   14.7637   34.8369   12.6641 C   0  0  0  0  0  0  0  0  0  0  0  0
  1  2  2  0
  3  2  1  6
  3  4  1  0
  4  5  1  0
  3  6  1  0
  2  7  2  0
  2  8  1  0
  9  6  1  6
  5 10  1  0
  5 11  1  0
  9 11  1  0
  9 12  1  0
 12 13  1  6
 12 14  1  0
 14 15  1  0
 15 16  2  0
 16 17  1  0
 17 18  1  0
 14 19  1  6
 18 20  1  0
 15 21  1  0
 20 21  1  0
M  END
$$$$
36
     RDKit          3D

 22 25  0  0  0  0  0  0  0  0999 V2000
   14.9044   36.6646   21.3127 C   0  0  0  0  0  0  0  0  0  0  0  0
   14.1324   35.6102   21.0406 C   0  0  0  0  0  0  0  0  0  0  0  0
   15.1087   37.3851   20.1207 N   0  0  0  0  0  0  0  0  0  0  0  0
   13.8902   35.0738   19.7853 C   0  0  2  0  0  0  0  0  0  0  0  0
   14.9193   36.9905   18.9014 C   0  0  0  0  0  0  0  0  0  0  0  0
   14.2562   35.8065   18.7189 C   0  0  1  0  0  0  0  0  0  0  0  0
   13.9496   35.2096   17.4272 C   0  0  1  0  0  0  0  0  0  0  0  0
   13.1783   33.9496   19.2722 N   0  0  0  0  0  0  0  0  0  0  0  0
   14.2092   35.5433   16.1897 N   0  0  0  0  0  0  0  0  0  0  0  0
   13.7834   34.7666   15.1779 C   0  0  2  0  0  0  0  0  0  0  0  0
   12.5168   32.9869   19.9800 C   0  0  0  0  0  0  0  0  0  0  0  0
   11.1021   33.2628   20.2741 C   0  0  0  0  0  0  0  0  0  0  0  0
   13.3602   33.5227   15.7591 N   0  0  0  0  0  0  0  0  0  0  0  0
   13.4422   33.8613   17.1379 C   0  0  2  0  0  0  0  0  0  0  0  0
   13.9042   35.1155   13.7549 C   0  0  2  0  0  0  0  0  0  0  0  0
   13.9870   36.2983   13.3259 C   0  0  0  0  0  0  0  0  0  0  0  0
   13.0139   33.1459   18.2541 C   0  0  0  0  0  0  0  0  0  0  0  0
   14.0172   36.3662   12.0670 C   0  0  0  0  0  0  0  0  0  0  0  0
   14.0433   35.4106   11.1197 C   0  0  0  0  0  0  0  0  0  0  0  0
   13.8096   33.8860   12.9129 C   0  0  0  0  0  0  0  0  0  0  0  0
   13.8727   34.0945   11.5923 C   0  0  2  0  0  0  0  0  0  0  0  0
   13.8459   32.8281   10.4764 Cl  0  0  0  0  0  0  0  0  0  0  0  0
  1  2  1  0
  1  3  1  0
  4  2  1  1
  3  5  1  0
  4  6  1  0
  6  5  1  6
  6  7  1  0
  4  8  1  0
  7  9  1  6
 10  9  1  1
  8 11  1  0
 11 12  1  0
 10 13  1  0
  7 14  1  0
 13 14  1  0
 10 15  1  0
 15 16  1  6
  8 17  1  0
 14 17  1  6
 16 18  1  0
 18 19  1  0
 15 20  1  0
 19 21  1  0
 20 21  1  0
 21 22  1  1
M  END
$$$$
37
     RDKit          3D

 22 25  0  0  0  0  0  0  0  0999 V2000
   14.3059   37.3963   21.0499 O   0  0  0  0  0  0  0  0  0  0  0  0
   14.4523   36.3292   20.2948 S   0  0  0  0  0  0  0  0  0  0  0  0
   14.2420   36.3041   18.6054 C   0  0  0  0  0  0  0  0  0  0  0  0
   13.4115   35.0819   20.6214 N   0  0  0  0  0  0  0  0  0  0  0  0
   13.2949   34.1873   19.5400 C   0  0  1  0  0  0  0  0  0  0  0  0
   15.9286   36.0634   20.6664 O   0  0  0  0  0  0  0  0  0  0  0  0
   12.5488   33.0914   19.4231 C   0  0  0  0  0  0  0  0  0  0  0  0
   13.4337   35.0398   18.3250 C   0  0  2  0  0  0  0  0  0  0  0  0
   13.1657   34.2844   17.1866 C   0  0  2  0  0  0  0  0  0  0  0  0
   13.4229   34.9928   15.8605 C   0  0  0  0  0  0  0  0  0  0  0  0
   12.1175   32.5169   18.2473 C   0  0  0  0  0  0  0  0  0  0  0  0
   12.4008   33.2810   17.0012 C   0  0  2  0  0  0  0  0  0  0  0  0
   11.9438   32.7071   15.8222 C   0  0  0  0  0  0  0  0  0  0  0  0
   13.0421   34.4642   14.6949 C   0  0  1  0  0  0  0  0  0  0  0  0
   11.1811   31.5670   15.7745 O   0  0  0  0  0  0  0  0  0  0  0  0
   12.2878   33.3436   14.6882 C   0  0  0  0  0  0  0  0  0  0  0  0
   11.0554   31.3767   14.4828 C   0  0  0  0  0  0  0  0  0  0  0  0
   13.3932   35.1911   13.5287 O   0  0  0  0  0  0  0  0  0  0  0  0
   12.5629   36.1106   12.8896 C   0  0  0  0  0  0  0  0  0  0  0  0
   10.4167   30.3427   13.8654 C   0  0  0  0  0  0  0  0  0  0  0  0
   11.6690   32.4455   13.7723 C   0  0  0  0  0  0  0  0  0  0  0  0
   11.0069   29.7583   12.8657 O   0  0  0  0  0  0  0  0  0  0  0  0
  1  2  2  0
  2  3  1  0
  2  4  1  0
  4  5  1  0
  2  6  2  0
  5  7  1  6
  8  3  1  6
  5  8  1  0
  8  9  1  0
  9 10  1  6
  7 11  1  0
  9 12  1  0
 12 11  1  1
 12 13  1  0
 10 14  1  0
 13 15  1  0
 13 16  1  0
 14 16  1  0
 15 17  1  0
 14 18  1  6
 18 19  1  0
 17 20  1  0
 16 21  1  0
 17 21  1  0
 20 22  1  0
M  END
$$$$
38
     RDKit          3D

 22 24  0  0  0  0  0  0  0  0999 V2000
   14.2416   37.5517   20.2016 O   0  0  0  0  0  0  0  0  0  0  0  0
   14.1926   36.6717   19.3887 C   0  0  0  0  0  0  0  0  0  0  0  0
   13.9891   35.2363   19.8618 N   0  0  0  0  0  0  0  0  0  0  0  0
   14.3688   36.8314   18.0973 N   0  0  0  0  0  0  0  0  0  0  0  0
   13.6657   34.2630   18.9857 C   0  0  0  0  0  0  0  0  0  0  0  0
   14.0503   35.8052   17.1445 C   0  0  0  0  0  0  0  0  0  0  0  0
   13.7674   34.4799   17.6487 C   0  0  2  0  0  0  0  0  0  0  0  0
   13.3696   33.0448   19.5163 O   0  0  0  0  0  0  0  0  0  0  0  0
   13.0552   33.7010   16.6439 C   0  0  2  0  0  0  0  0  0  0  0  0
   13.4383   33.7696   15.3782 O   0  0  0  0  0  0  0  0  0  0  0  0
   12.5406   33.3087   14.3159 C   0  0  1  0  0  0  0  0  0  0  0  0
   11.5104   33.7962   16.4400 C   0  0  2  0  0  0  0  0  0  0  0  0
   11.2752   33.4745   14.9818 C   0  0  2  0  0  0  0  0  0  0  0  0
   11.1871   35.2913   16.6497 C   0  0  0  0  0  0  0  0  0  0  0  0
   10.7143   33.0206   17.4934 C   0  0  0  0  0  0  0  0  0  0  0  0
   10.7532   32.0887   14.7001 C   0  0  0  0  0  0  0  0  0  0  0  0
    9.7361   33.6777   18.3548 C   0  0  0  0  0  0  0  0  0  0  0  0
   12.8096   32.9558   13.0441 C   0  0  1  0  0  0  0  0  0  0  0  0
   14.0463   33.2408   12.4193 O   0  0  0  0  0  0  0  0  0  0  0  0
   12.3204   31.5768   12.8254 C   0  0  0  0  0  0  0  0  0  0  0  0
   14.1707   33.1018   11.1145 C   0  0  0  0  0  0  0  0  0  0  0  0
   10.9202   31.4385   13.3698 C   0  0  0  0  0  0  0  0  0  0  0  0
  1  2  2  0
  2  3  1  0
  2  4  1  0
  3  5  1  0
  4  6  1  0
  5  7  1  0
  7  6  1  1
  5  8  2  0
  7  9  1  0
  9 10  1  6
 11 10  1  6
  9 12  1  0
 11 13  1  0
 12 13  1  0
 12 14  1  6
 12 15  1  0
 13 16  1  1
 15 17  1  0
 11 18  1  0
 18 19  1  1
 18 20  1  0
 19 21  1  0
 16 22  1  0
 20 22  1  0
M  END
$$$$
39
     RDKit          3D

 22 23  0  0  0  0  0  0  0  0999 V2000
   14.0587   37.3627   21.3545 O   0  0  0  0  0  0  0  0  0  0  0  0
   14.3886   36.4086   20.6095 S   0  0  0  0  0  0  0  0  0  0  0  0
   15.7244   35.8759   20.9518 O   0  0  0  0  0  0  0  0  0  0  0  0
   13.5411   35.2306   20.2447 N   0  0  0  0  0  0  0  0  0  0  0  0
   14.4614   37.1573   19.0264 C   0  0  2  0  0  0  0  0  0  0  0  0
   13.3219   34.5405   19.1099 C   0  0  1  0  0  0  0  0  0  0  0  0
   13.6792   35.1924   17.8748 C   0  0  0  0  0  0  0  0  0  0  0  0
   13.4054   34.5197   16.6173 C   0  0  0  0  0  0  0  0  0  0  0  0
   13.0134   33.1763   18.8978 C   0  0  0  0  0  0  0  0  0  0  0  0
   14.3236   36.4586   17.8902 N   0  0  0  0  0  0  0  0  0  0  0  0
   12.9569   33.2846   16.5647 C   0  0  2  0  0  0  0  0  0  0  0  0
   14.8521   38.4583   19.0736 O   0  0  0  0  0  0  0  0  0  0  0  0
   13.6928   35.2994   15.4004 O   0  0  0  0  0  0  0  0  0  0  0  0
   12.6818   32.5801   15.2856 C   0  0  0  0  0  0  0  0  0  0  0  0
   12.6553   32.5831   17.7100 C   0  0  0  0  0  0  0  0  0  0  0  0
   13.6148   32.6731   14.3511 O   0  0  0  0  0  0  0  0  0  0  0  0
   11.7294   31.7611   15.1394 O   0  0  0  0  0  0  0  0  0  0  0  0
   10.8310   31.9742   13.9919 C   0  0  0  0  0  0  0  0  0  0  0  0
    9.6536   32.7421   14.4913 C   0  0  0  0  0  0  0  0  0  0  0  0
    9.9073   34.1302   14.6875 C   0  0  0  0  0  0  0  0  0  0  0  0
    9.8621   34.9619   13.6490 O   0  0  0  0  0  0  0  0  0  0  0  0
   10.3065   34.6158   15.9265 O   0  0  0  0  0  0  0  0  0  0  0  0
  1  2  2  0
  2  3  2  0
  2  4  1  0
  2  5  1  0
  4  6  1  0
  6  7  1  0
  7  8  1  0
  6  9  1  1
  5 10  1  0
  7 10  1  0
  8 11  1  0
  5 12  1  6
  8 13  1  0
 11 14  1  6
  9 15  1  0
 11 15  1  0
 14 16  2  0
 14 17  1  0
 17 18  1  0
 18 19  1  0
 19 20  1  0
 20 21  1  0
 20 22  2  0
M  END
$$$$
4
     RDKit          3D

 17 18  0  0  0  0  0  0  0  0999 V2000
   14.7242   37.9432   18.9816 O   0  0  0  0  0  0  0  0  0  0  0  0
   14.8309   36.9559   19.7210 S   0  0  0  0  0  0  0  0  0  0  0  0
   16.1470   36.5329   20.3063 O   0  0  0  0  0  0  0  0  0  0  0  0
   13.6545   36.9785   20.7304 N   0  0  0  0  0  0  0  0  0  0  0  0
   14.3919   35.5882   18.7407 C   0  0  0  0  0  0  0  0  0  0  0  0
   14.7788   35.5081   17.3886 N   0  0  0  0  0  0  0  0  0  0  0  0
   14.3370   34.4246   16.7207 C   0  0  2  0  0  0  0  0  0  0  0  0
   13.6149   34.4281   19.0715 C   0  0  1  0  0  0  0  0  0  0  0  0
   12.9883   33.9772   20.2162 C   0  0  0  0  0  0  0  0  0  0  0  0
   13.4651   33.8550   17.7833 C   0  0  0  0  0  0  0  0  0  0  0  0
   12.0183   32.9450   20.0633 C   0  0  0  0  0  0  0  0  0  0  0  0
   12.5596   32.8338   17.7375 C   0  0  0  0  0  0  0  0  0  0  0  0
   11.2268   32.4510   21.0621 F   0  0  0  0  0  0  0  0  0  0  0  0
   14.7829   34.0319   15.5251 C   0  0  0  0  0  0  0  0  0  0  0  0
   13.8948   33.1433   14.8884 O   0  0  0  0  0  0  0  0  0  0  0  0
   11.8285   32.4138   18.7813 C   0  0  0  0  0  0  0  0  0  0  0  0
   15.5009   34.6141   14.8629 O   0  0  0  0  0  0  0  0  0  0  0  0
  1  2  2  0
  2  3  2  0
  2  4  1  0
  2  5  1  0
  5  6  1  0
  6  7  1  0
  5  8  1  0
  8  9  1  6
  7 10  1  0
  8 10  1  0
  9 11  1  0
 10 12  1  0
 11 13  1  0
  7 14  1  1
 14 15  1  0
 11 16  1  0
 12 16  1  0
 14 17  2  0
M  END
$$$$
40
     RDKit          3D

 22 24  0  0  0  0  0  0  0  0999 V2000
   15.6947   37.6955   19.5144 N   0  0  0  0  0  0  0  0  0  0  0  0
   14.8300   36.9216   19.5393 C   0  0  0  0  0  0  0  0  0  0  0  0
   13.8994   35.7911   19.3969 C   0  0  2  0  0  0  0  0  0  0  0  0
   13.4032   35.1794   20.2965 C   0  0  1  0  0  0  0  0  0  0  0  0
   13.9169   35.1720   18.0739 C   0  0  2  0  0  0  0  0  0  0  0  0
   13.4913   35.7021   21.7995 C   0  0  0  0  0  0  0  0  0  0  0  0
   12.6288   34.0514   20.0620 C   0  0  0  0  0  0  0  0  0  0  0  0
   14.5505   35.8198   16.8789 O   0  0  0  0  0  0  0  0  0  0  0  0
   12.5061   33.5045   18.8052 C   0  0  0  0  0  0  0  0  0  0  0  0
   13.2000   34.1162   17.6800 C   0  0  0  0  0  0  0  0  0  0  0  0
   14.2604   34.8793   15.8436 C   0  0  2  0  0  0  0  0  0  0  0  0
   14.6456   35.0208   14.5567 C   0  0  2  0  0  0  0  0  0  0  0  0
   13.3359   33.9122   16.3755 C   0  0  1  0  0  0  0  0  0  0  0  0
   12.9086   33.0109   15.4687 C   0  0  0  0  0  0  0  0  0  0  0  0
   15.3605   36.0565   14.0612 F   0  0  0  0  0  0  0  0  0  0  0  0
   14.0725   34.0522   13.6784 C   0  0  0  0  0  0  0  0  0  0  0  0
   13.2187   33.0640   14.1688 C   0  0  0  0  0  0  0  0  0  0  0  0
   12.7166   32.1214   13.1320 C   0  0  0  0  0  0  0  0  0  0  0  0
   13.5383   31.7058   12.1541 N   0  0  0  0  0  0  0  0  0  0  0  0
   13.0512   30.6931   11.1965 C   0  0  0  0  0  0  0  0  0  0  0  0
   12.4455   29.7499   11.8567 O   0  0  0  0  0  0  0  0  0  0  0  0
   13.3817   30.6411    9.9520 O   0  0  0  0  0  0  0  0  0  0  0  0
  1  2  3  0
  3  2  1  1
  3  4  1  0
  3  5  1  0
  4  6  1  6
  4  7  1  0
  5  8  1  6
  7  9  1  0
  5 10  1  0
  9 10  1  0
 11  8  1  6
 11 12  1  0
 10 13  1  0
 11 13  1  0
 13 14  1  1
 12 15  1  6
 12 16  1  0
 14 17  1  0
 16 17  1  0
 17 18  1  0
 18 19  2  3
 19 20  1  0
 20 21  1  0
 20 22  2  0
M  END
$$$$
41
     RDKit          3D

 22 24  0  0  0  0  0  0  0  0999 V2000
   14.2048   37.3561   20.7209 N   0  0  0  0  0  0  0  0  0  0  0  0
   13.8791   36.1445   20.9300 C   0  0  0  0  0  0  0  0  0  0  0  0
   14.6945   37.5261   19.3968 N   0  0  0  0  0  0  0  0  0  0  0  0
   13.8893   35.3438   20.1444 C   0  0  2  0  0  0  0  0  0  0  0  0
   14.3654   35.8989   18.8179 C   0  0  2  0  0  0  0  0  0  0  0  0
   14.6332   35.5841   17.5075 C   0  0  0  0  0  0  0  0  0  0  0  0
   14.3254   34.1667   17.3375 C   0  0  1  0  0  0  0  0  0  0  0  0
   13.7545   33.4367   18.4719 C   0  0  0  0  0  0  0  0  0  0  0  0
   13.5564   33.9362   19.7726 C   0  0  0  0  0  0  0  0  0  0  0  0
   13.0892   35.8828   22.1049 O   0  0  0  0  0  0  0  0  0  0  0  0
   14.2770   33.6297   16.0869 N   0  0  0  0  0  0  0  0  0  0  0  0
   13.3879   33.9042   15.0394 C   0  0  0  0  0  0  0  0  0  0  0  0
   12.6960   34.9363   15.0297 O   0  0  0  0  0  0  0  0  0  0  0  0
   13.3964   33.0713   13.8222 C   0  0  2  0  0  0  0  0  0  0  0  0
   13.3309   33.6519   12.5942 N   0  0  0  0  0  0  0  0  0  0  0  0
   13.2652   32.8742   11.4889 C   0  0  2  0  0  0  0  0  0  0  0  0
   13.2990   31.7454   13.7930 N   0  0  0  0  0  0  0  0  0  0  0  0
   13.2454   31.5586   11.5637 C   0  0  0  0  0  0  0  0  0  0  0  0
   13.4246   33.5327   10.1518 C   0  0  0  0  0  0  0  0  0  0  0  0
   13.2519   30.9464   12.7651 C   0  0  0  0  0  0  0  0  0  0  0  0
   13.7103   32.8397    9.0911 O   0  0  0  0  0  0  0  0  0  0  0  0
   12.8950   34.7321    9.9940 O   0  0  0  0  0  0  0  0  0  0  0  0
  1  2  1  0
  1  3  1  0
  2  4  1  0
  3  5  1  0
  4  5  1  0
  5  6  1  1
  6  7  1  0
  7  8  1  0
  4  9  1  6
  8  9  1  0
  2 10  2  0
  7 11  1  6
 11 12  1  0
 12 13  2  0
 14 12  1  1
 14 15  1  0
 15 16  1  0
 14 17  1  0
 16 18  1  0
 16 19  1  6
 17 20  1  0
 18 20  1  0
 19 21  2  0
 19 22  1  0
M  END
$$$$
42
     RDKit          3D

 22 24  0  0  0  0  0  0  0  0999 V2000
   15.9185   36.9613   19.4858 N   0  0  0  0  0  0  0  0  0  0  0  0
   14.7622   36.8807   20.0177 C   0  0  0  0  0  0  0  0  0  0  0  0
   14.3377   37.5714   21.0974 O   0  0  0  0  0  0  0  0  0  0  0  0
   13.9274   35.6959   19.5135 C   0  0  0  0  0  0  0  0  0  0  0  0
   13.0939   34.9606   20.2841 C   0  0  2  0  0  0  0  0  0  0  0  0
   13.0625   35.1775   21.7658 C   0  0  0  0  0  0  0  0  0  0  0  0
   13.9885   35.2408   18.0824 C   0  0  0  0  0  0  0  0  0  0  0  0
   13.3286   34.4743   17.7328 C   0  0  1  0  0  0  0  0  0  0  0  0
   12.3763   33.9180   19.7672 C   0  0  0  0  0  0  0  0  0  0  0  0
   13.3485   34.1233   16.1758 C   0  0  0  0  0  0  0  0  0  0  0  0
   12.4610   33.5755   18.3619 C   0  0  1  0  0  0  0  0  0  0  0  0
   11.4378   33.1034   20.6642 C   0  0  0  0  0  0  0  0  0  0  0  0
   11.6930   32.8303   17.5380 C   0  0  2  0  0  0  0  0  0  0  0  0
   14.1723   34.6929   15.3991 O   0  0  0  0  0  0  0  0  0  0  0  0
   12.2824   33.0810   16.2001 N   0  0  0  0  0  0  0  0  0  0  0  0
   11.4778   32.5008   15.1602 C   0  0  0  0  0  0  0  0  0  0  0  0
   10.2069   32.5242   15.2028 C   0  0  0  0  0  0  0  0  0  0  0  0
    9.4099   33.0046   16.2374 C   0  0  0  0  0  0  0  0  0  0  0  0
   12.3999   31.9822   14.1716 C   0  0  0  0  0  0  0  0  0  0  0  0
   10.3299   33.0101   17.5353 C   0  0  0  0  0  0  0  0  0  0  0  0
   13.5798   32.3367   13.8707 O   0  0  0  0  0  0  0  0  0  0  0  0
   12.0272   30.7801   13.6141 O   0  0  0  0  0  0  0  0  0  0  0  0
  1  2  1  0
  2  3  2  0
  2  4  1  0
  4  5  1  0
  5  6  1  1
  4  7  1  0
  8  7  1  1
  5  9  1  0
  8 10  1  0
  8 11  1  0
 11  9  1  1
  9 12  1  0
 11 13  1  0
 10 14  2  0
 10 15  1  0
 13 15  1  0
 15 16  1  0
 16 17  1  0
 17 18  1  0
 16 19  1  0
 13 20  1  6
 18 20  1  0
 19 21  1  0
 19 22  2  0
M  END
$$$$
43
     RDKit          3D

 23 24  0  0  0  0  0  0  0  0999 V2000
   14.2416   37.5517   20.2016 O   0  0  0  0  0  0  0  0  0  0  0  0
   14.6682   36.4807   19.8442 C   0  0  0  0  0  0  0  0  0  0  0  0
   13.6986   35.5497   19.3490 C   0  0  2  0  0  0  0  0  0  0  0  0
   15.9303   36.4127   19.3203 O   0  0  0  0  0  0  0  0  0  0  0  0
   13.1421   34.6481   20.3964 C   0  0  0  0  0  0  0  0  0  0  0  0
   12.2881   33.5994   20.0130 C   0  0  0  0  0  0  0  0  0  0  0  0
   13.2603   35.2135   18.0414 C   0  0  0  0  0  0  0  0  0  0  0  0
   12.4795   34.2231   17.6542 C   0  0  0  0  0  0  0  0  0  0  0  0
   11.9150   33.4359   18.6707 C   0  0  0  0  0  0  0  0  0  0  0  0
   12.1889   33.9572   16.2632 C   0  0  1  0  0  0  0  0  0  0  0  0
   11.1156   33.0621   15.9865 C   0  0  0  0  0  0  0  0  0  0  0  0
   12.7989   34.6731   15.1475 C   0  0  1  0  0  0  0  0  0  0  0  0
   13.8670   35.3072   15.2198 O   0  0  0  0  0  0  0  0  0  0  0  0
   10.7267   32.8961   14.5539 C   0  0  0  0  0  0  0  0  0  0  0  0
   12.5530   34.2128   13.7779 C   0  0  1  0  0  0  0  0  0  0  0  0
   11.4817   33.3386   13.5422 C   0  0  0  0  0  0  0  0  0  0  0  0
   13.3687   34.8390   12.5776 C   0  0  1  0  0  0  0  0  0  0  0  0
   14.0673   35.8727   12.9117 O   0  0  0  0  0  0  0  0  0  0  0  0
   13.9867   33.8837   11.8253 C   0  0  0  0  0  0  0  0  0  0  0  0
   14.7018   34.2710   10.6884 C   0  0  0  0  0  0  0  0  0  0  0  0
   13.9722   32.6629   12.2097 O   0  0  0  0  0  0  0  0  0  0  0  0
   14.9468   33.3372    9.6995 O   0  0  0  0  0  0  0  0  0  0  0  0
   15.2118   35.4169   10.3495 O   0  0  0  0  0  0  0  0  0  0  0  0
  1  2  2  0
  3  2  1  6
  2  4  1  0
  3  5  1  0
  5  6  1  0
  3  7  1  0
  7  8  1  0
  6  9  1  0
  8  9  1  0
 10  8  1  1
 10 11  1  0
 10 12  1  0
 12 13  1  1
 11 14  1  0
 12 15  1  0
 14 16  1  0
 15 16  1  6
 15 17  1  0
 17 18  1  1
 17 19  1  0
 19 20  1  0
 19 21  2  0
 20 22  1  0
 20 23  2  0
M  END
$$$$
44
     RDKit          3D

 23 25  0  0  0  0  0  0  0  0999 V2000
   13.7440   37.2699   20.6884 O   0  0  0  0  0  0  0  0  0  0  0  0
   14.8235   36.8113   20.1767 S   0  0  0  0  0  0  0  0  0  0  0  0
   14.4722   35.5369   19.1700 C   0  0  1  0  0  0  0  0  0  0  0  0
   13.5508   34.4712   19.6199 C   0  0  0  0  0  0  0  0  0  0  0  0
   13.0748   33.5836   18.6121 C   0  0  0  0  0  0  0  0  0  0  0  0
   14.6779   35.6149   17.6792 C   0  0  0  0  0  0  0  0  0  0  0  0
   15.8652   36.1858   21.1076 O   0  0  0  0  0  0  0  0  0  0  0  0
   15.7326   37.6563   19.0857 N   0  0  0  0  0  0  0  0  0  0  0  0
   14.1970   34.6115   16.8252 C   0  0  0  0  0  0  0  0  0  0  0  0
   13.3762   33.6002   17.3048 C   0  0  2  0  0  0  0  0  0  0  0  0
   12.7215   32.6277   16.3709 C   0  0  2  0  0  0  0  0  0  0  0  0
   13.3758   32.3146   15.2673 O   0  0  0  0  0  0  0  0  0  0  0  0
   11.3583   32.8832   16.0451 C   0  0  2  0  0  0  0  0  0  0  0  0
   10.4300   33.3542   16.9422 C   0  0  0  0  0  0  0  0  0  0  0  0
    9.0477   33.5090   16.6787 C   0  0  0  0  0  0  0  0  0  0  0  0
    8.1137   34.1145   17.4446 F   0  0  0  0  0  0  0  0  0  0  0  0
   10.9391   32.2568   14.8735 C   0  0  2  0  0  0  0  0  0  0  0  0
   11.8528   31.7019   13.9777 C   0  0  0  0  0  0  0  0  0  0  0  0
   13.0213   31.7179   14.2757 C   0  0  0  0  0  0  0  0  0  0  0  0
    9.4543   32.3971   14.4499 C   0  0  2  0  0  0  0  0  0  0  0  0
    9.0410   32.1313   13.2291 O   0  0  0  0  0  0  0  0  0  0  0  0
    8.4719   32.9589   15.4100 C   0  0  0  0  0  0  0  0  0  0  0  0
   13.7749   31.0772   13.3196 O   0  0  0  0  0  0  0  0  0  0  0  0
  1  2  2  0
  3  2  1  6
  3  4  1  0
  4  5  1  0
  3  6  1  0
  2  7  2  0
  2  8  1  0
  6  9  1  0
 10  5  1  6
  9 10  1  0
 10 11  1  0
 11 12  1  6
 11 13  1  0
 13 14  1  1
 14 15  1  0
 15 16  1  0
 13 17  1  0
 17 18  1  6
 12 19  1  0
 18 19  1  0
 17 20  1  0
 20 21  1  6
 15 22  1  0
 20 22  1  0
 19 23  2  0
M  END
$$$$
45
     RDKit          3D

 23 25  0  0  0  0  0  0  0  0999 V2000
   14.0587   37.3627   21.3545 O   0  0  0  0  0  0  0  0  0  0  0  0
   14.3886   36.4086   20.6095 S   0  0  0  0  0  0  0  0  0  0  0  0
   15.7244   35.8759   20.9518 O   0  0  0  0  0  0  0  0  0  0  0  0
   13.5411   35.2306   20.2447 N   0  0  0  0  0  0  0  0  0  0  0  0
   14.4614   37.1573   19.0264 C   0  0  2  0  0  0  0  0  0  0  0  0
   13.3219   34.5405   19.1099 C   0  0  1  0  0  0  0  0  0  0  0  0
   13.6792   35.1924   17.8748 C   0  0  0  0  0  0  0  0  0  0  0  0
   13.4054   34.5197   16.6173 C   0  0  0  0  0  0  0  0  0  0  0  0
   13.0134   33.1763   18.8978 C   0  0  0  0  0  0  0  0  0  0  0  0
   14.3236   36.4586   17.8902 N   0  0  0  0  0  0  0  0  0  0  0  0
   12.9569   33.2846   16.5647 C   0  0  2  0  0  0  0  0  0  0  0  0
   14.8521   38.4583   19.0736 O   0  0  0  0  0  0  0  0  0  0  0  0
   13.6928   35.2994   15.4004 O   0  0  0  0  0  0  0  0  0  0  0  0
   12.6818   32.5801   15.2856 C   0  0  0  0  0  0  0  0  0  0  0  0
   12.6553   32.5831   17.7100 C   0  0  0  0  0  0  0  0  0  0  0  0
   13.6148   32.6731   14.3511 O   0  0  0  0  0  0  0  0  0  0  0  0
   11.7294   31.7611   15.1394 O   0  0  0  0  0  0  0  0  0  0  0  0
   11.4213   31.2868   13.8912 C   0  0  0  0  0  0  0  0  0  0  0  0
   11.9566   30.1709   13.3282 C   0  0  0  0  0  0  0  0  0  0  0  0
   10.3560   31.8816   13.2240 C   0  0  0  0  0  0  0  0  0  0  0  0
   11.6671   29.7054   12.2686 C   0  0  0  0  0  0  0  0  0  0  0  0
   10.5962   30.2505   11.4526 C   0  0  0  0  0  0  0  0  0  0  0  0
    9.9353   31.3161   11.9968 C   0  0  0  0  0  0  0  0  0  0  0  0
  1  2  2  0
  2  3  2  0
  2  4  1  0
  2  5  1  0
  4  6  1  0
  6  7  1  0
  7  8  1  0
  6  9  1  1
  5 10  1  0
  7 10  1  0
  8 11  1  0
  5 12  1  6
  8 13  1  0
 11 14  1  6
  9 15  1  0
 11 15  1  0
 14 16  2  0
 14 17  1  0
 17 18  1  0
 18 19  1  0
 18 20  1  0
 19 21  1  0
 21 22  1  0
 20 23  1  0
 22 23  1  0
M  END
$$$$
46
     RDKit          3D

 23 25  0  0  0  0  0  0  0  0999 V2000
   15.7462   36.7685   20.4486 N   0  0  0  0  0  0  0  0  0  0  0  0
   14.4554   36.7646   20.6656 C   0  0  0  0  0  0  0  0  0  0  0  0
   13.7296   35.7638   19.9859 C   0  0  1  0  0  0  0  0  0  0  0  0
   13.7421   37.6227   21.4614 O   0  0  0  0  0  0  0  0  0  0  0  0
   13.9165   35.5689   18.5167 C   0  0  0  0  0  0  0  0  0  0  0  0
   14.5584   36.4624   17.8071 O   0  0  0  0  0  0  0  0  0  0  0  0
   12.9138   34.7889   20.6267 C   0  0  0  0  0  0  0  0  0  0  0  0
   13.3895   34.4633   17.9284 C   0  0  0  0  0  0  0  0  0  0  0  0
   12.6123   33.5364   18.5402 C   0  0  0  0  0  0  0  0  0  0  0  0
   13.6824   34.3158   16.4330 C   0  0  0  0  0  0  0  0  0  0  0  0
   12.0540   32.4559   17.7975 C   0  0  0  0  0  0  0  0  0  0  0  0
   12.3277   33.7106   19.9408 C   0  0  0  0  0  0  0  0  0  0  0  0
   13.1852   33.1934   15.7935 C   0  0  1  0  0  0  0  0  0  0  0  0
   12.3804   32.3094   16.4444 C   0  0  0  0  0  0  0  0  0  0  0  0
   13.3094   33.1046   14.3471 C   0  0  0  0  0  0  0  0  0  0  0  0
   13.1354   32.3040   13.6109 O   0  0  0  0  0  0  0  0  0  0  0  0
   13.7719   34.2523   13.6403 O   0  0  0  0  0  0  0  0  0  0  0  0
   13.7959   34.5316   12.3050 C   0  0  0  0  0  0  0  0  0  0  0  0
   13.3285   33.5503   11.4644 C   0  0  0  0  0  0  0  0  0  0  0  0
   14.1968   35.7844   11.8063 C   0  0  0  0  0  0  0  0  0  0  0  0
   13.5681   33.7274   10.2312 C   0  0  0  0  0  0  0  0  0  0  0  0
   14.0893   34.9526    9.6248 C   0  0  0  0  0  0  0  0  0  0  0  0
   14.4122   35.9541   10.4840 C   0  0  0  0  0  0  0  0  0  0  0  0
  1  2  1  0
  3  2  1  1
  2  4  2  0
  3  5  1  0
  5  6  2  0
  3  7  1  0
  5  8  1  0
  8  9  1  0
  8 10  1  0
  9 11  1  0
  7 12  1  0
  9 12  1  0
 10 13  1  0
 11 14  1  0
 13 14  1  0
 13 15  1  6
 15 16  2  0
 15 17  1  0
 17 18  1  0
 18 19  1  0
 18 20  1  0
 19 21  1  0
 21 22  1  0
 20 23  1  0
 22 23  1  0
M  END
$$$$
47
     RDKit          3D

 23 26  0  0  0  0  0  0  0  0999 V2000
   10.3865   32.8448   20.0220 C   0  0  0  0  0  0  0  0  0  0  0  0
   10.5425   32.9587   18.6913 C   0  0  0  0  0  0  0  0  0  0  0  0
   11.7721   33.2439   18.1133 C   0  0  1  0  0  0  0  0  0  0  0  0
   12.9377   33.5135   18.9569 C   0  0  0  0  0  0  0  0  0  0  0  0
   12.7772   33.4877   20.3511 C   0  0  0  0  0  0  0  0  0  0  0  0
   11.4776   33.1836   20.8980 C   0  0  0  0  0  0  0  0  0  0  0  0
   11.9708   33.2098   16.6734 C   0  0  1  0  0  0  0  0  0  0  0  0
   14.2569   33.8377   18.3117 C   0  0  0  0  0  0  0  0  0  0  0  0
   14.2704   35.0129   17.9836 O   0  0  0  0  0  0  0  0  0  0  0  0
   10.9011   32.9418   15.8573 C   0  0  0  0  0  0  0  0  0  0  0  0
   12.8036   34.1256   16.0481 N   0  0  0  0  0  0  0  0  0  0  0  0
   12.8856   34.2686   14.6695 C   0  0  1  0  0  0  0  0  0  0  0  0
   11.0670   32.8815   14.4462 C   0  0  0  0  0  0  0  0  0  0  0  0
   13.9906   35.0445   14.1247 O   0  0  0  0  0  0  0  0  0  0  0  0
   12.0206   33.6407   13.8700 C   0  0  0  0  0  0  0  0  0  0  0  0
   13.6479   35.9429   13.2808 C   0  0  2  0  0  0  0  0  0  0  0  0
   12.1628   33.8892   12.3511 C   0  0  0  0  0  0  0  0  0  0  0  0
   11.5223   33.1939   11.5492 O   0  0  0  0  0  0  0  0  0  0  0  0
   12.9934   35.0449   12.0767 C   0  0  1  0  0  0  0  0  0  0  0  0
   14.8094   36.5621   12.4889 C   0  0  0  0  0  0  0  0  0  0  0  0
   14.3592   37.0671   11.2467 C   0  0  0  0  0  0  0  0  0  0  0  0
   12.9426   35.3291   10.7758 C   0  0  0  0  0  0  0  0  0  0  0  0
   13.8046   36.3645   10.3220 C   0  0  0  0  0  0  0  0  0  0  0  0
  1  2  1  0
  3  2  1  1
  3  4  1  0
  4  5  1  0
  1  6  1  0
  5  6  1  0
  3  7  1  0
  4  8  1  0
  8  9  1  0
  7 10  1  6
  7 11  1  0
 12 11  1  1
 10 13  1  0
 12 14  1  0
 12 15  1  0
 13 15  1  0
 14 16  1  0
 15 17  1  0
 17 18  2  0
 16 19  1  0
 17 19  1  0
 16 20  1  6
 20 21  1  0
 19 22  1  6
 21 23  1  0
 22 23  1  0
M  END
$$$$
48
     RDKit          3D

 23 25  0  0  0  0  0  0  0  0999 V2000
   13.5020   37.2241   21.2476 O   0  0  0  0  0  0  0  0  0  0  0  0
   14.1832   36.3143   20.6575 S   0  0  0  0  0  0  0  0  0  0  0  0
   14.6714   36.6998   19.1596 C   0  0  1  0  0  0  0  0  0  0  0  0
   15.4283   35.8155   21.3963 O   0  0  0  0  0  0  0  0  0  0  0  0
   13.2775   35.0132   20.5294 N   0  0  0  0  0  0  0  0  0  0  0  0
   13.2038   34.2663   19.2720 C   0  0  0  0  0  0  0  0  0  0  0  0
   15.4649   37.7112   19.0878 N   0  0  0  0  0  0  0  0  0  0  0  0
   14.6365   35.6413   18.2169 C   0  0  0  0  0  0  0  0  0  0  0  0
   13.8386   34.5624   18.1440 C   0  0  0  0  0  0  0  0  0  0  0  0
   12.3376   33.0758   19.3475 C   0  0  0  0  0  0  0  0  0  0  0  0
   13.7372   33.7413   16.9071 C   0  0  1  0  0  0  0  0  0  0  0  0
   12.1583   32.4038   18.1335 C   0  0  0  0  0  0  0  0  0  0  0  0
   12.8401   32.6678   17.0330 C   0  0  0  0  0  0  0  0  0  0  0  0
   12.6261   31.8454   15.8786 O   0  0  0  0  0  0  0  0  0  0  0  0
   12.5899   32.4506   14.6387 C   0  0  1  0  0  0  0  0  0  0  0  0
   13.1790   33.7011   14.5551 C   0  0  2  0  0  0  0  0  0  0  0  0
   12.0611   31.6881   13.6377 C   0  0  0  0  0  0  0  0  0  0  0  0
   11.4312   30.4270   13.8954 O   0  0  0  0  0  0  0  0  0  0  0  0
   14.1811   34.0747   15.6717 C   0  0  0  0  0  0  0  0  0  0  0  0
   12.3262   31.7348   12.3710 O   0  0  0  0  0  0  0  0  0  0  0  0
   12.1051   34.7270   14.2902 C   0  0  0  0  0  0  0  0  0  0  0  0
   11.5375   35.3054   15.1621 O   0  0  0  0  0  0  0  0  0  0  0  0
   12.0511   35.2491   13.0523 O   0  0  0  0  0  0  0  0  0  0  0  0
  1  2  2  0
  2  3  1  0
  2  4  2  0
  2  5  1  0
  5  6  1  0
  3  7  1  1
  3  8  1  0
  6  9  1  0
  8  9  1  0
  6 10  1  0
  9 11  1  0
 10 12  1  0
 11 13  1  0
 12 13  1  0
 13 14  1  0
 14 15  1  0
 15 16  1  0
 15 17  1  6
 17 18  1  0
 11 19  1  6
 16 19  1  0
 17 20  2  0
 16 21  1  1
 21 22  1  0
 21 23  2  0
M  END
$$$$
49
     RDKit          3D

 23 26  0  0  0  0  0  0  0  0999 V2000
   14.0587   37.3627   21.3545 O   0  0  0  0  0  0  0  0  0  0  0  0
   14.3886   36.4086   20.6095 S   0  0  0  0  0  0  0  0  0  0  0  0
   15.7244   35.8759   20.9518 O   0  0  0  0  0  0  0  0  0  0  0  0
   13.5411   35.2306   20.2447 N   0  0  0  0  0  0  0  0  0  0  0  0
   14.4614   37.1573   19.0264 C   0  0  2  0  0  0  0  0  0  0  0  0
   13.3219   34.5405   19.1099 C   0  0  1  0  0  0  0  0  0  0  0  0
   13.6792   35.1924   17.8748 C   0  0  0  0  0  0  0  0  0  0  0  0
   13.4054   34.5197   16.6173 C   0  0  1  0  0  0  0  0  0  0  0  0
   13.0134   33.1763   18.8978 C   0  0  0  0  0  0  0  0  0  0  0  0
   14.3236   36.4586   17.8902 N   0  0  0  0  0  0  0  0  0  0  0  0
   12.9569   33.2846   16.5647 C   0  0  0  0  0  0  0  0  0  0  0  0
   14.8521   38.4583   19.0736 O   0  0  0  0  0  0  0  0  0  0  0  0
   12.6938   32.5788   17.7865 C   0  0  0  0  0  0  0  0  0  0  0  0
   13.5709   35.2592   15.2778 C   0  0  0  0  0  0  0  0  0  0  0  0
   12.7366   32.7701   15.2492 C   0  0  0  0  0  0  0  0  0  0  0  0
   12.9555   33.4170   14.1472 C   0  0  2  0  0  0  0  0  0  0  0  0
   13.2625   34.6247   14.1446 C   0  0  2  0  0  0  0  0  0  0  0  0
   13.4531   35.2517   12.7703 C   0  0  0  0  0  0  0  0  0  0  0  0
   12.7724   32.8101   12.7639 C   0  0  0  0  0  0  0  0  0  0  0  0
   13.3290   34.6890   11.6688 C   0  0  0  0  0  0  0  0  0  0  0  0
   12.9721   33.3956   11.6514 C   0  0  0  0  0  0  0  0  0  0  0  0
   12.8087   32.7574   10.3490 O   0  0  0  0  0  0  0  0  0  0  0  0
   13.7238   31.8266    9.8905 C   0  0  0  0  0  0  0  0  0  0  0  0
  1  2  2  0
  2  3  2  0
  2  4  1  0
  2  5  1  0
  4  6  1  0
  6  7  1  0
  7  8  1  0
  6  9  1  1
  5 10  1  0
  7 10  1  0
  8 11  1  0
  5 12  1  6
  9 13  1  0
 11 13  1  0
  8 14  1  1
 11 15  1  0
 16 15  1  1
 17 14  1  1
 16 17  1  0
 17 18  1  0
 16 19  1  0
 18 20  1  0
 19 21  1  0
 20 21  1  0
 21 22  1  0
 22 23  1  0
M  END
$$$$
5
     RDKit          3D

 17 18  0  0  0  0  0  0  0  0999 V2000
   14.2416   37.5517   20.2016 O   0  0  0  0  0  0  0  0  0  0  0  0
   14.1926   36.6717   19.3887 C   0  0  0  0  0  0  0  0  0  0  0  0
   13.9891   35.2363   19.8618 N   0  0  0  0  0  0  0  0  0  0  0  0
   14.3688   36.8314   18.0973 N   0  0  0  0  0  0  0  0  0  0  0  0
   13.6657   34.2630   18.9857 C   0  0  0  0  0  0  0  0  0  0  0  0
   14.0503   35.8052   17.1445 C   0  0  0  0  0  0  0  0  0  0  0  0
   13.7674   34.4799   17.6487 C   0  0  2  0  0  0  0  0  0  0  0  0
   13.3696   33.0448   19.5163 O   0  0  0  0  0  0  0  0  0  0  0  0
   13.0552   33.7010   16.6439 C   0  0  2  0  0  0  0  0  0  0  0  0
   13.4383   33.7696   15.3782 O   0  0  0  0  0  0  0  0  0  0  0  0
   12.8580   32.8428   14.3535 C   0  0  2  0  0  0  0  0  0  0  0  0
   11.9116   32.1819   14.7768 C   0  0  0  0  0  0  0  0  0  0  0  0
   11.7976   32.9764   16.9016 C   0  0  0  0  0  0  0  0  0  0  0  0
   13.6626   32.8253   13.1518 C   0  0  0  0  0  0  0  0  0  0  0  0
   11.2854   32.2217   16.0175 C   0  0  0  0  0  0  0  0  0  0  0  0
   13.6764   31.7089   12.4354 O   0  0  0  0  0  0  0  0  0  0  0  0
   14.2037   33.7815   12.9561 O   0  0  0  0  0  0  0  0  0  0  0  0
  1  2  2  0
  2  3  1  0
  2  4  1  0
  3  5  1  0
  4  6  1  0
  5  7  1  0
  7  6  1  1
  5  8  2  0
  7  9  1  0
  9 10  1  0
 10 11  1  0
 11 12  1  0
  9 13  1  6
 11 14  1  1
 12 15  1  0
 13 15  1  0
 14 16  1  0
 14 17  2  0
M  END
$$$$
50
     RDKit          3D

 23 25  0  0  0  0  0  0  0  0999 V2000
   14.2048   37.3561   20.7209 O   0  0  0  0  0  0  0  0  0  0  0  0
   14.5372   36.2818   20.2192 C   0  0  0  0  0  0  0  0  0  0  0  0
   13.6665   35.5688   19.3163 C   0  0  1  0  0  0  0  0  0  0  0  0
   15.6545   35.7845   20.6786 O   0  0  0  0  0  0  0  0  0  0  0  0
   13.5745   35.9703   18.0044 C   0  0  0  0  0  0  0  0  0  0  0  0
   12.8730   35.0902   17.0331 C   0  0  1  0  0  0  0  0  0  0  0  0
   12.7270   35.4425   15.6641 C   0  0  0  0  0  0  0  0  0  0  0  0
   12.7489   34.5964   14.6853 C   0  0  2  0  0  0  0  0  0  0  0  0
   12.5623   33.8414   17.5136 C   0  0  0  0  0  0  0  0  0  0  0  0
   12.6171   34.9661   13.2693 C   0  0  1  0  0  0  0  0  0  0  0  0
   13.0095   34.3835   19.7656 C   0  0  0  0  0  0  0  0  0  0  0  0
   11.8196   35.8937   12.9748 O   0  0  0  0  0  0  0  0  0  0  0  0
   13.4427   34.4421   12.2838 C   0  0  2  0  0  0  0  0  0  0  0  0
   12.4630   33.5063   18.8164 C   0  0  0  0  0  0  0  0  0  0  0  0
   13.7860   35.0461   11.0213 C   0  0  1  0  0  0  0  0  0  0  0  0
   13.8772   33.0275   12.3452 O   0  0  0  0  0  0  0  0  0  0  0  0
   14.2838   32.5742   11.1176 C   0  0  0  0  0  0  0  0  0  0  0  0
   12.6943   33.1735   14.8898 C   0  0  0  0  0  0  0  0  0  0  0  0
   12.3506   32.8165   16.3650 C   0  0  0  0  0  0  0  0  0  0  0  0
   13.7746   36.2532   10.6629 O   0  0  0  0  0  0  0  0  0  0  0  0
   14.3218   33.7889   10.2689 C   0  0  0  0  0  0  0  0  0  0  0  0
   14.7117   31.4421   10.6653 O   0  0  0  0  0  0  0  0  0  0  0  0
   14.7909   33.9742    8.8977 C   0  0  0  0  0  0  0  0  0  0  0  0
  1  2  2  0
  3  2  1  6
  2  4  1  0
  3  5  1  0
  6  5  1  6
  6  7  1  0
  8  7  1  1
  6  9  1  0
  8 10  1  0
  3 11  1  0
 10 12  1  1
 10 13  1  0
  9 14  1  0
 11 14  1  0
 13 15  1  0
 13 16  1  6
 16 17  1  0
  8 18  1  0
  9 19  1  0
 18 19  1  0
 15 20  1  1
 15 21  1  0
 17 21  1  0
 17 22  2  0
 21 23  1  0
M  END
$$$$
51
     RDKit          3D

 23 25  0  0  0  0  0  0  0  0999 V2000
   14.2048   37.3561   20.7209 O   0  0  0  0  0  0  0  0  0  0  0  0
   14.5372   36.2818   20.2192 C   0  0  0  0  0  0  0  0  0  0  0  0
   13.6665   35.5688   19.3163 C   0  0  1  0  0  0  0  0  0  0  0  0
   15.6545   35.7845   20.6786 O   0  0  0  0  0  0  0  0  0  0  0  0
   13.5745   35.9703   18.0044 C   0  0  0  0  0  0  0  0  0  0  0  0
   12.8730   35.0902   17.0331 C   0  0  1  0  0  0  0  0  0  0  0  0
   12.7270   35.4425   15.6641 C   0  0  0  0  0  0  0  0  0  0  0  0
   12.7489   34.5964   14.6853 C   0  0  2  0  0  0  0  0  0  0  0  0
   12.5623   33.8414   17.5136 C   0  0  0  0  0  0  0  0  0  0  0  0
   12.6171   34.9661   13.2693 C   0  0  1  0  0  0  0  0  0  0  0  0
   13.0095   34.3835   19.7656 C   0  0  0  0  0  0  0  0  0  0  0  0
   11.8196   35.8937   12.9748 O   0  0  0  0  0  0  0  0  0  0  0  0
   13.4427   34.4421   12.2838 C   0  0  2  0  0  0  0  0  0  0  0  0
   12.4630   33.5063   18.8164 C   0  0  0  0  0  0  0  0  0  0  0  0
   13.7860   35.0461   11.0213 C   0  0  1  0  0  0  0  0  0  0  0  0
   13.8772   33.0275   12.3452 O   0  0  0  0  0  0  0  0  0  0  0  0
   14.2838   32.5742   11.1176 C   0  0  0  0  0  0  0  0  0  0  0  0
   12.6943   33.1735   14.8898 C   0  0  0  0  0  0  0  0  0  0  0  0
   12.3506   32.8165   16.3650 C   0  0  0  0  0  0  0  0  0  0  0  0
   13.7746   36.2532   10.6629 O   0  0  0  0  0  0  0  0  0  0  0  0
   14.3218   33.7889   10.2689 C   0  0  0  0  0  0  0  0  0  0  0  0
   14.8214   33.8962    8.9267 O   0  0  0  0  0  0  0  0  0  0  0  0
   14.7275   31.5823   10.7497 O   0  0  0  0  0  0  0  0  0  0  0  0
  1  2  2  0
  3  2  1  6
  2  4  1  0
  3  5  1  0
  6  5  1  6
  6  7  1  0
  8  7  1  1
  6  9  1  0
  8 10  1  0
  3 11  1  0
 10 12  1  1
 10 13  1  0
  9 14  1  0
 11 14  1  0
 13 15  1  0
 13 16  1  6
 16 17  1  0
  8 18  1  0
  9 19  1  0
 18 19  1  0
 15 20  1  1
 15 21  1  0
 17 21  1  0
 21 22  1  0
 17 23  2  0
M  END
$$$$
52
     RDKit          3D

 23 25  0  0  0  0  0  0  0  0999 V2000
   14.2048   37.3561   20.7209 O   0  0  0  0  0  0  0  0  0  0  0  0
   14.5372   36.2818   20.2192 C   0  0  0  0  0  0  0  0  0  0  0  0
   13.6665   35.5688   19.3163 C   0  0  1  0  0  0  0  0  0  0  0  0
   15.6545   35.7845   20.6786 O   0  0  0  0  0  0  0  0  0  0  0  0
   13.5745   35.9703   18.0044 C   0  0  0  0  0  0  0  0  0  0  0  0
   12.8730   35.0902   17.0331 C   0  0  1  0  0  0  0  0  0  0  0  0
   12.7270   35.4425   15.6641 C   0  0  0  0  0  0  0  0  0  0  0  0
   12.7489   34.5964   14.6853 C   0  0  2  0  0  0  0  0  0  0  0  0
   12.5623   33.8414   17.5136 C   0  0  1  0  0  0  0  0  0  0  0  0
   12.6171   34.9661   13.2693 C   0  0  1  0  0  0  0  0  0  0  0  0
   13.0095   34.3835   19.7656 C   0  0  0  0  0  0  0  0  0  0  0  0
   11.8196   35.8937   12.9748 O   0  0  0  0  0  0  0  0  0  0  0  0
   13.4427   34.4421   12.2838 C   0  0  1  0  0  0  0  0  0  0  0  0
   12.4984   33.5139   18.8403 C   0  0  0  0  0  0  0  0  0  0  0  0
   13.7724   32.9753   12.4570 C   0  0  0  0  0  0  0  0  0  0  0  0
   12.0251   33.0602   16.3414 C   0  0  0  0  0  0  0  0  0  0  0  0
   13.5557   32.4639   13.7271 N   0  0  0  0  0  0  0  0  0  0  0  0
   12.7728   33.1695   14.7916 C   0  0  2  0  0  0  0  0  0  0  0  0
   14.3337   32.2815   11.5713 O   0  0  0  0  0  0  0  0  0  0  0  0
   13.6407   34.8448   10.9145 C   0  0  0  0  0  0  0  0  0  0  0  0
   14.8377   35.6932   10.7611 C   0  0  0  0  0  0  0  0  0  0  0  0
   15.9558   35.2480   10.3715 O   0  0  0  0  0  0  0  0  0  0  0  0
   14.7510   37.0156   10.9911 O   0  0  0  0  0  0  0  0  0  0  0  0
  1  2  2  0
  3  2  1  6
  2  4  1  0
  3  5  1  0
  6  5  1  6
  6  7  1  0
  8  7  1  1
  6  9  1  0
  8 10  1  0
  3 11  1  0
 10 12  1  1
 10 13  1  0
  9 14  1  1
 11 14  1  0
 13 15  1  0
  9 16  1  0
 15 17  1  0
  8 18  1  0
 18 16  1  1
 17 18  1  0
 15 19  2  0
 13 20  1  6
 20 21  1  0
 21 22  2  0
 21 23  1  0
M  END
$$$$
53
     RDKit          3D

 24 26  0  0  0  0  0  0  0  0999 V2000
   14.2416   37.5517   20.2016 O   0  0  0  0  0  0  0  0  0  0  0  0
   14.6682   36.4807   19.8442 C   0  0  0  0  0  0  0  0  0  0  0  0
   13.6986   35.5497   19.3490 C   0  0  2  0  0  0  0  0  0  0  0  0
   15.9303   36.4127   19.3203 O   0  0  0  0  0  0  0  0  0  0  0  0
   13.1421   34.6481   20.3964 C   0  0  0  0  0  0  0  0  0  0  0  0
   12.2881   33.5994   20.0130 C   0  0  0  0  0  0  0  0  0  0  0  0
   13.2603   35.2135   18.0414 C   0  0  0  0  0  0  0  0  0  0  0  0
   12.4795   34.2231   17.6542 C   0  0  0  0  0  0  0  0  0  0  0  0
   11.9150   33.4359   18.6707 C   0  0  0  0  0  0  0  0  0  0  0  0
   12.1889   33.9572   16.2632 C   0  0  1  0  0  0  0  0  0  0  0  0
   11.1156   33.0621   15.9865 C   0  0  0  0  0  0  0  0  0  0  0  0
   12.7989   34.6731   15.1475 C   0  0  1  0  0  0  0  0  0  0  0  0
   13.8670   35.3072   15.2198 O   0  0  0  0  0  0  0  0  0  0  0  0
   10.7267   32.8961   14.5539 C   0  0  0  0  0  0  0  0  0  0  0  0
   12.5530   34.2128   13.7779 C   0  0  1  0  0  0  0  0  0  0  0  0
   11.4817   33.3386   13.5422 C   0  0  0  0  0  0  0  0  0  0  0  0
   13.3687   34.8390   12.5776 C   0  0  1  0  0  0  0  0  0  0  0  0
   14.0673   35.8727   12.9117 O   0  0  0  0  0  0  0  0  0  0  0  0
   13.9867   33.8837   11.8253 C   0  0  0  0  0  0  0  0  0  0  0  0
   14.7018   34.2710   10.6884 C   0  0  0  0  0  0  0  0  0  0  0  0
   15.1446   33.4085    9.6953 C   0  0  0  0  0  0  0  0  0  0  0  0
   13.5849   32.5237   11.5584 C   0  0  0  0  0  0  0  0  0  0  0  0
   14.8072   32.1046    9.7197 C   0  0  0  0  0  0  0  0  0  0  0  0
   14.0469   31.6322   10.7415 C   0  0  0  0  0  0  0  0  0  0  0  0
  1  2  2  0
  3  2  1  6
  2  4  1  0
  3  5  1  0
  5  6  1  0
  3  7  1  0
  7  8  1  0
  6  9  1  0
  8  9  1  0
 10  8  1  1
 10 11  1  0
 10 12  1  0
 12 13  1  1
 11 14  1  0
 12 15  1  0
 14 16  1  0
 15 16  1  6
 15 17  1  0
 17 18  1  1
 17 19  1  0
 19 20  1  0
 20 21  1  0
 19 22  1  0
 21 23  1  0
 22 24  1  0
 23 24  1  0
M  END
$$$$
54
     RDKit          3D

 24 26  0  0  0  0  0  0  0  0999 V2000
   13.9889   37.4810   20.9504 O   0  0  0  0  0  0  0  0  0  0  0  0
   14.4243   36.4285   20.4001 S   0  0  0  0  0  0  0  0  0  0  0  0
   14.7583   36.7013   18.8253 N   0  0  0  0  0  0  0  0  0  0  0  0
   13.4481   35.1008   20.1293 C   0  0  0  0  0  0  0  0  0  0  0  0
   14.4433   35.5557   18.0401 C   0  0  2  0  0  0  0  0  0  0  0  0
   14.7289   35.4053   16.7430 N   0  0  0  0  0  0  0  0  0  0  0  0
   13.6521   34.6506   18.7871 C   0  0  2  0  0  0  0  0  0  0  0  0
   14.2711   34.3118   16.1922 C   0  0  1  0  0  0  0  0  0  0  0  0
   13.0463   33.5177   18.1574 C   0  0  0  0  0  0  0  0  0  0  0  0
   13.4433   33.3507   16.8004 C   0  0  0  0  0  0  0  0  0  0  0  0
   15.7193   36.1437   21.0793 O   0  0  0  0  0  0  0  0  0  0  0  0
   14.5104   34.1098   14.8010 O   0  0  0  0  0  0  0  0  0  0  0  0
   13.5947   34.4321   13.8442 C   0  0  1  0  0  0  0  0  0  0  0  0
   12.6797   35.2785   13.9067 C   0  0  2  0  0  0  0  0  0  0  0  0
   14.2142   33.9139   12.5113 C   0  0  0  0  0  0  0  0  0  0  0  0
   12.2225   35.9064   15.1510 O   0  0  0  0  0  0  0  0  0  0  0  0
   13.4512   34.2111   11.3860 C   0  0  1  0  0  0  0  0  0  0  0  0
   11.9064   35.6508   12.7183 C   0  0  0  0  0  0  0  0  0  0  0  0
   11.0724   36.2150   15.3662 C   0  0  0  0  0  0  0  0  0  0  0  0
   12.3444   35.1017   11.4939 C   0  0  0  0  0  0  0  0  0  0  0  0
   13.7599   33.7158   10.0630 C   0  0  0  0  0  0  0  0  0  0  0  0
   14.4757   32.5777    9.9447 N   0  0  0  0  0  0  0  0  0  0  0  0
   13.7476   34.1837    8.8134 O   0  0  0  0  0  0  0  0  0  0  0  0
   14.7226   31.6695   11.0535 O   0  0  0  0  0  0  0  0  0  0  0  0
  1  2  2  0
  2  3  1  0
  2  4  1  0
  5  3  1  6
  5  6  1  0
  7  4  1  6
  5  7  1  0
  6  8  1  0
  7  9  1  0
  8 10  1  0
  9 10  1  0
  2 11  2  0
  8 12  1  6
 13 12  1  1
 13 14  1  0
 13 15  1  0
 14 16  1  1
 15 17  1  0
 14 18  1  0
 16 19  1  0
 17 20  1  0
 18 20  1  0
 17 21  1  6
 21 22  1  0
 21 23  2  0
 22 24  1  0
M  END
$$$$
55
     RDKit          3D

 24 27  0  0  0  0  0  0  0  0999 V2000
   14.2416   37.5517   20.2016 O   0  0  0  0  0  0  0  0  0  0  0  0
   14.6682   36.4807   19.8442 C   0  0  0  0  0  0  0  0  0  0  0  0
   13.6986   35.5497   19.3490 C   0  0  2  0  0  0  0  0  0  0  0  0
   15.9303   36.4127   19.3203 O   0  0  0  0  0  0  0  0  0  0  0  0
   13.1421   34.6481   20.3964 C   0  0  0  0  0  0  0  0  0  0  0  0
   12.2881   33.5994   20.0130 C   0  0  0  0  0  0  0  0  0  0  0  0
   13.2603   35.2135   18.0414 C   0  0  0  0  0  0  0  0  0  0  0  0
   12.4795   34.2231   17.6542 C   0  0  0  0  0  0  0  0  0  0  0  0
   11.9150   33.4359   18.6707 C   0  0  0  0  0  0  0  0  0  0  0  0
   12.1889   33.9572   16.2632 C   0  0  1  0  0  0  0  0  0  0  0  0
   11.1156   33.0621   15.9865 C   0  0  0  0  0  0  0  0  0  0  0  0
   12.7989   34.6731   15.1475 C   0  0  1  0  0  0  0  0  0  0  0  0
   13.8670   35.3072   15.2198 O   0  0  0  0  0  0  0  0  0  0  0  0
   10.7267   32.8961   14.5539 C   0  0  0  0  0  0  0  0  0  0  0  0
   12.5530   34.2128   13.7779 C   0  0  2  0  0  0  0  0  0  0  0  0
   11.4817   33.3386   13.5422 C   0  0  1  0  0  0  0  0  0  0  0  0
   13.4250   34.5298   12.6997 C   0  0  0  0  0  0  0  0  0  0  0  0
   13.4995   33.7358   11.4959 C   0  0  2  0  0  0  0  0  0  0  0  0
   12.4686   32.8315   11.2880 C   0  0  2  0  0  0  0  0  0  0  0  0
   12.4333   32.1037   10.0162 C   0  0  0  0  0  0  0  0  0  0  0  0
   13.6843   31.9674    9.3685 C   0  0  0  0  0  0  0  0  0  0  0  0
   14.5456   33.6327   10.5704 C   0  0  0  0  0  0  0  0  0  0  0  0
   14.6636   32.8295    9.5745 C   0  0  0  0  0  0  0  0  0  0  0  0
   11.3983   32.8222   12.2923 C   0  0  0  0  0  0  0  0  0  0  0  0
  1  2  2  0
  3  2  1  6
  2  4  1  0
  3  5  1  0
  5  6  1  0
  3  7  1  0
  7  8  1  0
  6  9  1  0
  8  9  1  0
 10  8  1  1
 10 11  1  0
 10 12  1  0
 12 13  1  1
 11 14  1  0
 12 15  1  0
 16 14  1  1
 15 16  1  0
 15 17  1  1
 18 17  1  1
 18 19  1  0
 19 20  1  6
 20 21  1  0
 18 22  1  0
 21 23  1  0
 22 23  1  0
 16 24  1  0
 19 24  1  0
M  END
$$$$
56
     RDKit          3D

 24 27  0  0  0  0  0  0  0  0999 V2000
   13.8612   37.3445   11.6528 C   0  0  0  0  0  0  0  0  0  0  0  0
   12.7493   36.9400   12.0010 C   0  0  0  0  0  0  0  0  0  0  0  0
   12.4530   35.9068   12.6035 C   0  0  0  0  0  0  0  0  0  0  0  0
   13.4846   35.1809   12.8513 C   0  0  0  0  0  0  0  0  0  0  0  0
   14.8274   36.3843   11.7650 C   0  0  0  0  0  0  0  0  0  0  0  0
   14.7342   35.2890   12.4553 C   0  0  0  0  0  0  0  0  0  0  0  0
   13.2476   33.6926   13.6801 C   0  0  1  0  0  0  0  0  0  0  0  0
   13.2419   32.6231   12.9986 N   0  0  0  0  0  0  0  0  0  0  0  0
   13.1349   33.6913   14.9745 N   0  0  0  0  0  0  0  0  0  0  0  0
   13.3369   32.4055   11.6017 C   0  0  0  0  0  0  0  0  0  0  0  0
   12.8024   31.5601   13.8009 N   0  0  0  0  0  0  0  0  0  0  0  0
   12.5371   30.3165   13.3326 C   0  0  0  0  0  0  0  0  0  0  0  0
   13.1483   34.4542   16.1430 C   0  0  0  0  0  0  0  0  0  0  0  0
   12.7056   30.0271   11.9541 C   0  0  0  0  0  0  0  0  0  0  0  0
   13.5326   35.7309   16.0279 O   0  0  0  0  0  0  0  0  0  0  0  0
   13.1915   31.1140   11.1315 C   0  0  0  0  0  0  0  0  0  0  0  0
   12.5547   32.0169   15.1510 C   0  0  0  0  0  0  0  0  0  0  0  0
   13.4139   34.0774   17.5069 C   0  0  0  0  0  0  0  0  0  0  0  0
   12.7966   32.8962   17.7855 O   0  0  0  0  0  0  0  0  0  0  0  0
   14.0163   34.7525   18.4351 N   0  0  0  0  0  0  0  0  0  0  0  0
   14.6408   35.9790   18.2674 C   0  0  0  0  0  0  0  0  0  0  0  0
   13.5247   34.4783   19.7372 C   0  0  0  0  0  0  0  0  0  0  0  0
   13.6442   35.4041   20.6594 C   0  0  0  0  0  0  0  0  0  0  0  0
   14.7423   36.6193   19.6045 S   0  0  0  0  0  0  0  0  0  0  0  0
  1  2  1  0
  2  3  1  0
  3  4  1  0
  1  5  1  0
  4  6  1  0
  5  6  1  0
  7  4  1  1
  7  8  1  0
  7  9  1  0
  8 10  1  0
  8 11  1  0
 11 12  1  0
  9 13  1  0
 12 14  1  0
 13 15  2  0
 10 16  1  0
 14 16  1  0
  9 17  1  0
 11 17  1  0
 13 18  1  0
 18 19  2  0
 18 20  1  0
 20 21  1  0
 20 22  1  0
 22 23  1  0
 21 24  1  0
 23 24  1  0
M  END
$$$$
57
     RDKit          3D

 24 27  0  0  0  0  0  0  0  0999 V2000
   15.6947   37.6955   19.5144 N   0  0  0  0  0  0  0  0  0  0  0  0
   14.8300   36.9216   19.5393 C   0  0  0  0  0  0  0  0  0  0  0  0
   13.8994   35.7911   19.3969 C   0  0  2  0  0  0  0  0  0  0  0  0
   13.4032   35.1794   20.2965 C   0  0  1  0  0  0  0  0  0  0  0  0
   13.9169   35.1720   18.0739 C   0  0  2  0  0  0  0  0  0  0  0  0
   13.4913   35.7021   21.7995 C   0  0  0  0  0  0  0  0  0  0  0  0
   12.6288   34.0514   20.0620 C   0  0  0  0  0  0  0  0  0  0  0  0
   14.5505   35.8198   16.8789 O   0  0  0  0  0  0  0  0  0  0  0  0
   12.5061   33.5045   18.8052 C   0  0  0  0  0  0  0  0  0  0  0  0
   13.2000   34.1162   17.6800 C   0  0  0  0  0  0  0  0  0  0  0  0
   14.2604   34.8793   15.8436 C   0  0  2  0  0  0  0  0  0  0  0  0
   14.6456   35.0208   14.5567 C   0  0  2  0  0  0  0  0  0  0  0  0
   13.3359   33.9122   16.3755 C   0  0  1  0  0  0  0  0  0  0  0  0
   12.9086   33.0109   15.4687 C   0  0  0  0  0  0  0  0  0  0  0  0
   15.3605   36.0565   14.0612 F   0  0  0  0  0  0  0  0  0  0  0  0
   14.0725   34.0522   13.6784 C   0  0  0  0  0  0  0  0  0  0  0  0
   13.2187   33.0640   14.1688 C   0  0  0  0  0  0  0  0  0  0  0  0
   12.7166   32.1214   13.1320 C   0  0  0  0  0  0  0  0  0  0  0  0
   13.5383   31.7058   12.1541 N   0  0  0  0  0  0  0  0  0  0  0  0
   13.0512   30.6931   11.1965 C   0  0  1  0  0  0  0  0  0  0  0  0
   13.9464   30.1446   10.4344 O   0  0  0  0  0  0  0  0  0  0  0  0
   12.2533   29.6017   11.9883 C   0  0  0  0  0  0  0  0  0  0  0  0
   11.4743   31.6411   13.2301 N   0  0  0  0  0  0  0  0  0  0  0  0
   11.2029   30.4333   12.8020 C   0  0  0  0  0  0  0  0  0  0  0  0
  1  2  3  0
  3  2  1  1
  3  4  1  0
  3  5  1  0
  4  6  1  6
  4  7  1  0
  5  8  1  6
  7  9  1  0
  5 10  1  0
  9 10  1  0
 11  8  1  6
 11 12  1  0
 10 13  1  0
 11 13  1  0
 13 14  1  1
 12 15  1  6
 12 16  1  0
 14 17  1  0
 16 17  1  0
 17 18  1  0
 18 19  2  0
 19 20  1  0
 20 21  1  1
 20 22  1  0
 18 23  1  0
 22 24  1  0
 23 24  2  0
M  END
$$$$
58
     RDKit          3D

 24 26  0  0  0  0  0  0  0  0999 V2000
   14.0587   37.3627   21.3545 O   0  0  0  0  0  0  0  0  0  0  0  0
   14.3886   36.4086   20.6095 S   0  0  0  0  0  0  0  0  0  0  0  0
   15.7244   35.8759   20.9518 O   0  0  0  0  0  0  0  0  0  0  0  0
   13.5411   35.2306   20.2447 N   0  0  0  0  0  0  0  0  0  0  0  0
   14.4614   37.1573   19.0264 C   0  0  2  0  0  0  0  0  0  0  0  0
   13.3219   34.5405   19.1099 C   0  0  1  0  0  0  0  0  0  0  0  0
   13.6792   35.1924   17.8748 C   0  0  0  0  0  0  0  0  0  0  0  0
   13.4054   34.5197   16.6173 C   0  0  0  0  0  0  0  0  0  0  0  0
   13.0134   33.1763   18.8978 C   0  0  0  0  0  0  0  0  0  0  0  0
   14.3236   36.4586   17.8902 N   0  0  0  0  0  0  0  0  0  0  0  0
   12.9569   33.2846   16.5647 C   0  0  2  0  0  0  0  0  0  0  0  0
   14.8521   38.4583   19.0736 O   0  0  0  0  0  0  0  0  0  0  0  0
   13.6928   35.2994   15.4004 O   0  0  0  0  0  0  0  0  0  0  0  0
   12.6818   32.5801   15.2856 C   0  0  0  0  0  0  0  0  0  0  0  0
   12.6553   32.5831   17.7100 C   0  0  0  0  0  0  0  0  0  0  0  0
   13.6148   32.6731   14.3511 O   0  0  0  0  0  0  0  0  0  0  0  0
   11.7294   31.7611   15.1394 O   0  0  0  0  0  0  0  0  0  0  0  0
   11.4213   31.2868   13.8912 C   0  0  1  0  0  0  0  0  0  0  0  0
   11.9566   30.1709   13.3282 C   0  0  1  0  0  0  0  0  0  0  0  0
   10.3560   31.8816   13.2240 C   0  0  0  0  0  0  0  0  0  0  0  0
   13.0513   29.4051   13.9654 O   0  0  0  0  0  0  0  0  0  0  0  0
   11.4581   29.5193   12.1443 C   0  0  0  0  0  0  0  0  0  0  0  0
   10.5746   30.0752   11.5532 C   0  0  0  0  0  0  0  0  0  0  0  0
    9.8896   31.2723   12.0240 C   0  0  0  0  0  0  0  0  0  0  0  0
  1  2  2  0
  2  3  2  0
  2  4  1  0
  2  5  1  0
  4  6  1  0
  6  7  1  0
  7  8  1  0
  6  9  1  1
  5 10  1  0
  7 10  1  0
  8 11  1  0
  5 12  1  6
  8 13  1  0
 11 14  1  6
  9 15  1  0
 11 15  1  0
 14 16  2  0
 14 17  1  0
 18 17  1  1
 18 19  1  0
 18 20  1  0
 19 21  1  1
 19 22  1  0
 22 23  1  0
 20 24  1  0
 23 24  1  0
M  END
$$$$
59
     RDKit          3D

 24 27  0  0  0  0  0  0  0  0999 V2000
   15.6947   37.6955   19.5144 N   0  0  0  0  0  0  0  0  0  0  0  0
   14.8300   36.9216   19.5393 C   0  0  0  0  0  0  0  0  0  0  0  0
   13.8994   35.7911   19.3969 C   0  0  2  0  0  0  0  0  0  0  0  0
   13.4032   35.1794   20.2965 C   0  0  1  0  0  0  0  0  0  0  0  0
   13.9169   35.1720   18.0739 C   0  0  2  0  0  0  0  0  0  0  0  0
   13.4913   35.7021   21.7995 C   0  0  0  0  0  0  0  0  0  0  0  0
   12.6288   34.0514   20.0620 C   0  0  0  0  0  0  0  0  0  0  0  0
   14.5505   35.8198   16.8789 O   0  0  0  0  0  0  0  0  0  0  0  0
   12.5061   33.5045   18.8052 C   0  0  0  0  0  0  0  0  0  0  0  0
   13.2000   34.1162   17.6800 C   0  0  0  0  0  0  0  0  0  0  0  0
   14.2604   34.8793   15.8436 C   0  0  2  0  0  0  0  0  0  0  0  0
   14.6456   35.0208   14.5567 C   0  0  2  0  0  0  0  0  0  0  0  0
   13.3359   33.9122   16.3755 C   0  0  1  0  0  0  0  0  0  0  0  0
   12.9086   33.0109   15.4687 C   0  0  0  0  0  0  0  0  0  0  0  0
   15.3605   36.0565   14.0612 F   0  0  0  0  0  0  0  0  0  0  0  0
   14.0725   34.0522   13.6784 C   0  0  0  0  0  0  0  0  0  0  0  0
   13.2187   33.0640   14.1688 C   0  0  0  0  0  0  0  0  0  0  0  0
   12.7166   32.1214   13.1320 C   0  0  0  0  0  0  0  0  0  0  0  0
   13.5383   31.7058   12.1541 N   0  0  0  0  0  0  0  0  0  0  0  0
   13.0512   30.6931   11.1965 C   0  0  2  0  0  0  0  0  0  0  0  0
   12.4455   29.7499   11.8567 O   0  0  0  0  0  0  0  0  0  0  0  0
   11.4971   30.1541   12.7269 C   0  0  0  0  0  0  0  0  0  0  0  0
   11.7670   31.1377   13.6247 C   0  0  0  0  0  0  0  0  0  0  0  0
   14.3485   30.0962   10.4649 C   0  0  0  0  0  0  0  0  0  0  0  0
  1  2  3  0
  3  2  1  1
  3  4  1  0
  3  5  1  0
  4  6  1  6
  4  7  1  0
  5  8  1  6
  7  9  1  0
  5 10  1  0
  9 10  1  0
 11  8  1  6
 11 12  1  0
 10 13  1  0
 11 13  1  0
 13 14  1  1
 12 15  1  6
 12 16  1  0
 14 17  1  0
 16 17  1  0
 17 18  1  0
 18 19  2  0
 19 20  1  0
 20 21  1  0
 21 22  1  0
 18 23  1  0
 22 23  1  0
 20 24  1  1
M  END
$$$$
6
     RDKit          3D

 17 18  0  0  0  0  0  0  0  0999 V2000
   14.7242   37.9432   18.9816 O   0  0  0  0  0  0  0  0  0  0  0  0
   14.6736   36.8347   19.3784 S   0  0  0  0  0  0  0  0  0  0  0  0
   14.1436   36.6336   20.8292 N   0  0  0  0  0  0  0  0  0  0  0  0
   16.0951   36.1422   19.2195 O   0  0  0  0  0  0  0  0  0  0  0  0
   13.7745   35.7960   18.4711 C   0  0  0  0  0  0  0  0  0  0  0  0
   13.3530   34.4682   18.8567 C   0  0  0  0  0  0  0  0  0  0  0  0
   12.7939   33.7053   18.1913 C   0  0  0  0  0  0  0  0  0  0  0  0
   13.1930   35.9361   17.1178 C   0  0  0  0  0  0  0  0  0  0  0  0
   12.3350   33.9743   17.1056 C   0  0  0  0  0  0  0  0  0  0  0  0
   12.5252   35.0503   16.4341 C   0  0  0  0  0  0  0  0  0  0  0  0
   11.4986   32.7785   16.2665 C   0  0  1  0  0  0  0  0  0  0  0  0
   10.2071   32.8557   16.3382 C   0  0  0  0  0  0  0  0  0  0  0  0
   11.9006   32.5265   14.8712 C   0  0  2  0  0  0  0  0  0  0  0  0
   10.8917   32.0582   14.1238 C   0  0  0  0  0  0  0  0  0  0  0  0
    9.6313   32.3548   15.0053 C   0  0  0  0  0  0  0  0  0  0  0  0
   13.0695   31.5814   14.5574 O   0  0  0  0  0  0  0  0  0  0  0  0
   13.2849   31.5167   13.1856 C   0  0  0  0  0  0  0  0  0  0  0  0
  1  2  2  0
  2  3  1  0
  2  4  2  0
  2  5  1  0
  5  6  1  0
  6  7  1  0
  5  8  1  0
  7  9  1  0
  8 10  1  0
  9 10  1  0
 11  9  1  6
 11 12  1  0
 11 13  1  0
 13 14  1  0
 12 15  1  0
 14 15  1  0
 13 16  1  1
 16 17  1  0
M  END
$$$$
60
     RDKit          3D

 24 26  0  0  0  0  0  0  0  0999 V2000
   15.0537   37.4130   20.3918 N   0  0  0  0  0  0  0  0  0  0  0  0
   14.1953   36.4566   20.2995 C   0  0  2  0  0  0  0  0  0  0  0  0
   13.3759   36.0923   21.2756 N   0  0  0  0  0  0  0  0  0  0  0  0
   12.7904   35.0089   21.2600 C   0  0  0  0  0  0  0  0  0  0  0  0
   12.7062   34.1086   20.2920 C   0  0  0  0  0  0  0  0  0  0  0  0
   14.1911   35.3959   19.1930 C   0  0  0  0  0  0  0  0  0  0  0  0
   13.4606   34.3332   19.1957 C   0  0  2  0  0  0  0  0  0  0  0  0
   11.9155   32.9097   20.3040 C   0  0  0  0  0  0  0  0  0  0  0  0
   11.0598   32.7658   19.1514 C   0  0  0  0  0  0  0  0  0  0  0  0
   11.5639   33.2643   17.8887 C   0  0  2  0  0  0  0  0  0  0  0  0
   11.0830   32.8915   16.6720 C   0  0  1  0  0  0  0  0  0  0  0  0
   12.9598   33.8364   17.9462 C   0  0  1  0  0  0  0  0  0  0  0  0
   13.6168   33.9869   16.6569 C   0  0  0  0  0  0  0  0  0  0  0  0
    9.7077   32.3804   16.6162 O   0  0  0  0  0  0  0  0  0  0  0  0
   11.5238   33.0847   15.4240 C   0  0  0  0  0  0  0  0  0  0  0  0
    8.6917   33.2893   16.3468 C   0  0  0  0  0  0  0  0  0  0  0  0
   13.0024   33.5811   15.4365 C   0  0  1  0  0  0  0  0  0  0  0  0
   13.6059   33.7454   14.1788 O   0  0  0  0  0  0  0  0  0  0  0  0
   13.8661   35.0588   13.8177 C   0  0  0  0  0  0  0  0  0  0  0  0
   14.5166   35.0806   12.4675 C   0  0  1  0  0  0  0  0  0  0  0  0
   14.6275   34.1392   11.6725 O   0  0  0  0  0  0  0  0  0  0  0  0
   14.0555   36.3373   11.6511 C   0  0  0  0  0  0  0  0  0  0  0  0
   13.2953   37.2698   12.1406 O   0  0  0  0  0  0  0  0  0  0  0  0
   14.5288   36.5968   10.4654 O   0  0  0  0  0  0  0  0  0  0  0  0
  2  1  1  1
  2  3  1  0
  3  4  1  0
  4  5  1  0
  2  6  1  0
  5  7  1  0
  7  6  1  6
  5  8  1  0
  8  9  1  0
 10  9  1  1
 10 11  1  0
  7 12  1  0
 10 12  1  0
 12 13  1  6
 11 14  1  6
 11 15  1  0
 14 16  1  0
 13 17  1  0
 15 17  1  0
 17 18  1  6
 18 19  1  0
 19 20  1  0
 20 21  1  6
 20 22  1  0
 22 23  2  0
 22 24  1  0
M  END
$$$$
61
     RDKit          3D

 24 26  0  0  0  0  0  0  0  0999 V2000
   13.9889   37.4810   20.9504 O   0  0  0  0  0  0  0  0  0  0  0  0
   14.4243   36.4285   20.4001 S   0  0  0  0  0  0  0  0  0  0  0  0
   14.7583   36.7013   18.8253 N   0  0  0  0  0  0  0  0  0  0  0  0
   13.4481   35.1008   20.1293 C   0  0  0  0  0  0  0  0  0  0  0  0
   14.4433   35.5557   18.0401 C   0  0  2  0  0  0  0  0  0  0  0  0
   14.7289   35.4053   16.7430 N   0  0  0  0  0  0  0  0  0  0  0  0
   13.6521   34.6506   18.7871 C   0  0  2  0  0  0  0  0  0  0  0  0
   14.2711   34.3118   16.1922 C   0  0  1  0  0  0  0  0  0  0  0  0
   13.0463   33.5177   18.1574 C   0  0  0  0  0  0  0  0  0  0  0  0
   13.4433   33.3507   16.8004 C   0  0  0  0  0  0  0  0  0  0  0  0
   15.7193   36.1437   21.0793 O   0  0  0  0  0  0  0  0  0  0  0  0
   14.5104   34.1098   14.8010 O   0  0  0  0  0  0  0  0  0  0  0  0
   13.5947   34.4321   13.8442 C   0  0  1  0  0  0  0  0  0  0  0  0
   12.6797   35.2785   13.9067 C   0  0  2  0  0  0  0  0  0  0  0  0
   14.2142   33.9139   12.5113 C   0  0  0  0  0  0  0  0  0  0  0  0
   12.2225   35.9064   15.1510 O   0  0  0  0  0  0  0  0  0  0  0  0
   13.4512   34.2111   11.3860 C   0  0  1  0  0  0  0  0  0  0  0  0
   11.9064   35.6508   12.7183 C   0  0  0  0  0  0  0  0  0  0  0  0
   11.0724   36.2150   15.3662 C   0  0  0  0  0  0  0  0  0  0  0  0
   12.3444   35.1017   11.4939 C   0  0  0  0  0  0  0  0  0  0  0  0
   13.7599   33.7158   10.0630 C   0  0  0  0  0  0  0  0  0  0  0  0
   14.4757   32.5777    9.9447 N   0  0  0  0  0  0  0  0  0  0  0  0
   13.7476   34.1837    8.8134 O   0  0  0  0  0  0  0  0  0  0  0  0
   14.8751   31.9022    8.7007 C   0  0  0  0  0  0  0  0  0  0  0  0
  1  2  2  0
  2  3  1  0
  2  4  1  0
  5  3  1  6
  5  6  1  0
  7  4  1  6
  5  7  1  0
  6  8  1  0
  7  9  1  0
  8 10  1  0
  9 10  1  0
  2 11  2  0
  8 12  1  6
 13 12  1  1
 13 14  1  0
 13 15  1  0
 14 16  1  1
 15 17  1  0
 14 18  1  0
 16 19  1  0
 17 20  1  0
 18 20  1  0
 17 21  1  6
 21 22  1  0
 21 23  2  0
 22 24  1  0
M  END
$$$$
62
     RDKit          3D

 24 28  0  0  0  0  0  0  0  0999 V2000
   10.3865   32.8448   20.0220 C   0  0  0  0  0  0  0  0  0  0  0  0
   10.5425   32.9587   18.6913 C   0  0  2  0  0  0  0  0  0  0  0  0
   11.7721   33.2439   18.1133 C   0  0  1  0  0  0  0  0  0  0  0  0
   12.9377   33.5135   18.9569 C   0  0  0  0  0  0  0  0  0  0  0  0
   12.7772   33.4877   20.3511 C   0  0  0  0  0  0  0  0  0  0  0  0
   11.4776   33.1836   20.8980 C   0  0  0  0  0  0  0  0  0  0  0  0
   11.9708   33.2098   16.6734 C   0  0  2  0  0  0  0  0  0  0  0  0
   14.2569   33.8377   18.3117 C   0  0  0  0  0  0  0  0  0  0  0  0
   10.9341   32.9089   15.8018 C   0  0  0  0  0  0  0  0  0  0  0  0
   13.2437   33.3591   16.0837 C   0  0  2  0  0  0  0  0  0  0  0  0
    9.5737   32.9207   16.1132 C   0  0  0  0  0  0  0  0  0  0  0  0
   15.1157   34.3233   19.0744 O   0  0  0  0  0  0  0  0  0  0  0  0
    9.4008   32.8539   17.7187 C   0  0  0  0  0  0  0  0  0  0  0  0
   14.3035   33.7966   16.9830 N   0  0  0  0  0  0  0  0  0  0  0  0
   11.2539   32.5894   14.4241 C   0  0  1  0  0  0  0  0  0  0  0  0
   10.3023   32.2459   13.4517 C   0  0  0  0  0  0  0  0  0  0  0  0
   13.5412   33.2708   14.7747 C   0  0  0  0  0  0  0  0  0  0  0  0
   10.6836   31.7483   12.2331 C   0  0  0  0  0  0  0  0  0  0  0  0
    9.6710   31.4222   11.2461 O   0  0  0  0  0  0  0  0  0  0  0  0
   12.5587   32.7891   13.9246 C   0  0  1  0  0  0  0  0  0  0  0  0
   12.0047   31.9623   11.7669 N   0  0  0  0  0  0  0  0  0  0  0  0
   12.9665   32.4332   12.5862 C   0  0  0  0  0  0  0  0  0  0  0  0
   14.1378   32.4376   11.9587 O   0  0  0  0  0  0  0  0  0  0  0  0
   12.2876   31.5039   10.3090 C   0  0  0  0  0  0  0  0  0  0  0  0
  2  1  1  1
  2  3  1  0
  3  4  1  1
  4  5  1  0
  1  6  1  0
  5  6  1  0
  3  7  1  0
  4  8  1  0
  7  9  1  1
  7 10  1  0
  9 11  1  0
  8 12  2  0
  2 13  1  0
 11 13  1  0
  8 14  1  0
 10 14  1  0
  9 15  1  0
 15 16  1  6
 10 17  1  6
 16 18  1  0
 18 19  2  0
 15 20  1  0
 20 17  1  1
 18 21  1  0
 20 22  1  0
 21 22  1  0
 22 23  2  0
 21 24  1  0
M  END
$$$$
63
     RDKit          3D

 24 27  0  0  0  0  0  0  0  0999 V2000
   14.9044   36.6646   21.3127 C   0  0  0  0  0  0  0  0  0  0  0  0
   14.9525   37.1302   19.9616 N   0  0  0  0  0  0  0  0  0  0  0  0
   14.4495   36.4668   18.9837 C   0  0  0  0  0  0  0  0  0  0  0  0
   14.1154   35.5864   21.3651 C   0  0  0  0  0  0  0  0  0  0  0  0
   13.7198   34.9532   20.1617 C   0  0  0  0  0  0  0  0  0  0  0  0
   13.9287   35.3937   19.0735 C   0  0  1  0  0  0  0  0  0  0  0  0
   12.9510   33.6475   20.1198 N   0  0  0  0  0  0  0  0  0  0  0  0
   12.8615   33.3967   18.8063 C   0  0  0  0  0  0  0  0  0  0  0  0
   13.3859   34.4709   18.1250 N   0  0  0  0  0  0  0  0  0  0  0  0
   13.5224   34.5771   16.6637 C   0  0  2  0  0  0  0  0  0  0  0  0
   12.3678   34.9932   16.1332 C   0  0  0  0  0  0  0  0  0  0  0  0
   12.3195   35.0595   14.7149 C   0  0  0  0  0  0  0  0  0  0  0  0
   14.0672   33.4216   16.0683 C   0  0  0  0  0  0  0  0  0  0  0  0
   13.9674   33.4213   14.6399 C   0  0  0  0  0  0  0  0  0  0  0  0
   12.9181   34.1276   14.0358 C   0  0  2  0  0  0  0  0  0  0  0  0
   12.6485   33.9585   12.3999 C   0  0  0  0  0  0  0  0  0  0  0  0
   11.8279   34.6972   11.9024 O   0  0  0  0  0  0  0  0  0  0  0  0
   12.8955   32.8385   11.8391 N   0  0  0  0  0  0  0  0  0  0  0  0
   12.5487   32.5836   10.4535 C   0  0  0  0  0  0  0  0  0  0  0  0
   13.0970   31.4900   12.3937 C   0  0  0  0  0  0  0  0  0  0  0  0
   12.6639   30.9963   13.3131 O   0  0  0  0  0  0  0  0  0  0  0  0
   13.7493   30.5501   11.3659 C   0  0  0  0  0  0  0  0  0  0  0  0
   13.4262   31.3751   10.0516 C   0  0  0  0  0  0  0  0  0  0  0  0
   14.3322   29.4718   11.5596 O   0  0  0  0  0  0  0  0  0  0  0  0
  1  2  1  0
  2  3  1  0
  1  4  1  0
  4  5  1  0
  6  3  1  1
  5  6  1  0
  5  7  1  0
  7  8  1  0
  6  9  1  0
  8  9  1  0
 10  9  1  1
 10 11  1  0
 11 12  1  0
 10 13  1  0
 13 14  1  0
 12 15  1  0
 14 15  1  0
 15 16  1  6
 16 17  2  0
 16 18  1  0
 18 19  1  0
 18 20  1  0
 20 21  2  0
 20 22  1  0
 19 23  1  0
 22 23  1  0
 22 24  2  0
M  END
$$$$
64
     RDKit          3D

 24 26  0  0  0  0  0  0  0  0999 V2000
   14.2048   37.3561   20.7209 N   0  0  0  0  0  0  0  0  0  0  0  0
   13.8791   36.1445   20.9300 C   0  0  0  0  0  0  0  0  0  0  0  0
   14.6945   37.5261   19.3968 N   0  0  0  0  0  0  0  0  0  0  0  0
   13.8893   35.3438   20.1444 C   0  0  2  0  0  0  0  0  0  0  0  0
   14.3654   35.8989   18.8179 C   0  0  2  0  0  0  0  0  0  0  0  0
   14.6332   35.5841   17.5075 C   0  0  0  0  0  0  0  0  0  0  0  0
   14.3254   34.1667   17.3375 C   0  0  1  0  0  0  0  0  0  0  0  0
   13.7545   33.4367   18.4719 C   0  0  0  0  0  0  0  0  0  0  0  0
   13.5564   33.9362   19.7726 C   0  0  0  0  0  0  0  0  0  0  0  0
   13.0892   35.8828   22.1049 O   0  0  0  0  0  0  0  0  0  0  0  0
   14.2770   33.6297   16.0869 N   0  0  0  0  0  0  0  0  0  0  0  0
   13.3879   33.9042   15.0394 C   0  0  0  0  0  0  0  0  0  0  0  0
   12.6960   34.9363   15.0297 O   0  0  0  0  0  0  0  0  0  0  0  0
   13.3964   33.0713   13.8222 C   0  0  2  0  0  0  0  0  0  0  0  0
   13.3309   33.6519   12.5942 N   0  0  0  0  0  0  0  0  0  0  0  0
   13.2652   32.8742   11.4889 C   0  0  0  0  0  0  0  0  0  0  0  0
   13.2990   31.7454   13.7930 O   0  0  0  0  0  0  0  0  0  0  0  0
   13.5102   35.0039   12.4508 C   0  0  0  0  0  0  0  0  0  0  0  0
   14.9266   35.4911   12.1528 C   0  0  0  0  0  0  0  0  0  0  0  0
   13.0370   33.3431   10.3118 O   0  0  0  0  0  0  0  0  0  0  0  0
   13.2443   31.4350   11.6388 C   0  0  0  0  0  0  0  0  0  0  0  0
   13.1392   31.0019   12.7330 C   0  0  0  0  0  0  0  0  0  0  0  0
   13.2662   29.6070   12.7069 O   0  0  0  0  0  0  0  0  0  0  0  0
   14.9859   36.6684   11.4934 O   0  0  0  0  0  0  0  0  0  0  0  0
  1  2  1  0
  1  3  1  0
  2  4  1  0
  3  5  1  0
  4  5  1  0
  5  6  1  1
  6  7  1  0
  7  8  1  0
  4  9  1  6
  8  9  1  0
  2 10  2  0
  7 11  1  6
 11 12  1  0
 12 13  2  0
 14 12  1  1
 14 15  1  0
 15 16  1  0
 14 17  1  0
 15 18  1  0
 18 19  1  0
 16 20  2  0
 16 21  1  0
 17 22  1  0
 21 22  1  0
 22 23  2  0
 19 24  1  0
M  END
$$$$
65
     RDKit          3D

 24 27  0  0  0  0  0  0  0  0999 V2000
   15.6947   37.6955   19.5144 N   0  0  0  0  0  0  0  0  0  0  0  0
   14.8300   36.9216   19.5393 C   0  0  0  0  0  0  0  0  0  0  0  0
   13.8994   35.7911   19.3969 C   0  0  2  0  0  0  0  0  0  0  0  0
   13.4032   35.1794   20.2965 C   0  0  1  0  0  0  0  0  0  0  0  0
   13.9169   35.1720   18.0739 C   0  0  2  0  0  0  0  0  0  0  0  0
   13.4913   35.7021   21.7995 C   0  0  0  0  0  0  0  0  0  0  0  0
   12.6288   34.0514   20.0620 C   0  0  0  0  0  0  0  0  0  0  0  0
   14.5505   35.8198   16.8789 O   0  0  0  0  0  0  0  0  0  0  0  0
   12.5061   33.5045   18.8052 C   0  0  0  0  0  0  0  0  0  0  0  0
   13.2000   34.1162   17.6800 C   0  0  0  0  0  0  0  0  0  0  0  0
   14.2604   34.8793   15.8436 C   0  0  2  0  0  0  0  0  0  0  0  0
   14.6456   35.0208   14.5567 C   0  0  2  0  0  0  0  0  0  0  0  0
   13.3359   33.9122   16.3755 C   0  0  1  0  0  0  0  0  0  0  0  0
   12.9086   33.0109   15.4687 C   0  0  0  0  0  0  0  0  0  0  0  0
   15.3605   36.0565   14.0612 F   0  0  0  0  0  0  0  0  0  0  0  0
   14.0725   34.0522   13.6784 C   0  0  0  0  0  0  0  0  0  0  0  0
   13.2187   33.0640   14.1688 C   0  0  0  0  0  0  0  0  0  0  0  0
   12.7166   32.1214   13.1320 C   0  0  0  0  0  0  0  0  0  0  0  0
   13.5383   31.7058   12.1541 N   0  0  0  0  0  0  0  0  0  0  0  0
   13.0512   30.6931   11.1965 C   0  0  0  0  0  0  0  0  0  0  0  0
   12.4455   29.7499   11.8567 O   0  0  0  0  0  0  0  0  0  0  0  0
   11.4971   30.1541   12.7269 C   0  0  0  0  0  0  0  0  0  0  0  0
   11.7670   31.1377   13.6247 C   0  0  0  0  0  0  0  0  0  0  0  0
   13.8046   30.4559   10.1019 O   0  0  0  0  0  0  0  0  0  0  0  0
  1  2  3  0
  3  2  1  1
  3  4  1  0
  3  5  1  0
  4  6  1  6
  4  7  1  0
  5  8  1  6
  7  9  1  0
  5 10  1  0
  9 10  1  0
 11  8  1  6
 11 12  1  0
 10 13  1  0
 11 13  1  0
 13 14  1  1
 12 15  1  6
 12 16  1  0
 14 17  1  0
 16 17  1  0
 17 18  1  0
 18 19  2  0
 19 20  1  0
 20 21  1  0
 21 22  1  0
 18 23  1  0
 22 23  1  0
 20 24  2  0
M  END
$$$$
66
     RDKit          3D

 24 26  0  0  0  0  0  0  0  0999 V2000
   14.3059   37.3963   21.0499 N   0  0  0  0  0  0  0  0  0  0  0  0
   15.0801   36.8191   19.9811 C   0  0  0  0  0  0  0  0  0  0  0  0
   14.4992   35.7271   19.3427 N   0  0  0  0  0  0  0  0  0  0  0  0
   13.4316   35.3032   20.1946 C   0  0  2  0  0  0  0  0  0  0  0  0
   14.5579   35.3709   18.1311 C   0  0  0  0  0  0  0  0  0  0  0  0
   13.4282   36.2960   21.2544 C   0  0  0  0  0  0  0  0  0  0  0  0
   12.6487   34.0940   20.1141 C   0  0  0  0  0  0  0  0  0  0  0  0
   13.0521   33.3352   18.9717 C   0  0  1  0  0  0  0  0  0  0  0  0
   12.5413   36.3449   22.3040 O   0  0  0  0  0  0  0  0  0  0  0  0
   12.1259   32.5896   18.4128 O   0  0  0  0  0  0  0  0  0  0  0  0
   13.5640   34.2557   17.8032 C   0  0  1  0  0  0  0  0  0  0  0  0
   16.3029   37.3084   19.6346 O   0  0  0  0  0  0  0  0  0  0  0  0
   12.5208   34.6378   16.9828 O   0  0  0  0  0  0  0  0  0  0  0  0
   12.4574   33.9877   15.7801 C   0  0  1  0  0  0  0  0  0  0  0  0
   10.7662   33.2187   18.3102 C   0  0  0  0  0  0  0  0  0  0  0  0
   11.2717   33.5692   15.2873 C   0  0  0  0  0  0  0  0  0  0  0  0
   13.5656   33.8954   14.9897 C   0  0  0  0  0  0  0  0  0  0  0  0
   13.4751   33.2123   13.7225 C   0  0  0  0  0  0  0  0  0  0  0  0
   12.3509   32.8765   13.3782 C   0  0  1  0  0  0  0  0  0  0  0  0
   12.3298   32.2162   11.9634 O   0  0  0  0  0  0  0  0  0  0  0  0
   11.1787   32.9406   14.0550 C   0  0  0  0  0  0  0  0  0  0  0  0
   13.3854   31.7321   11.4765 C   0  0  0  0  0  0  0  0  0  0  0  0
   13.6004   30.3744   11.5771 C   0  0  0  0  0  0  0  0  0  0  0  0
   14.2565   32.3854   10.7625 O   0  0  0  0  0  0  0  0  0  0  0  0
  1  2  1  0
  2  3  1  0
  3  4  1  0
  3  5  1  0
  1  6  1  0
  4  6  1  0
  4  7  1  1
  7  8  1  0
  6  9  2  0
  8 10  1  6
  5 11  1  0
  8 11  1  0
  2 12  2  0
 11 13  1  1
 14 13  1  6
 10 15  1  0
 14 16  1  0
 14 17  1  0
 17 18  1  0
 18 19  1  0
 19 20  1  1
 16 21  1  0
 19 21  1  0
 20 22  1  0
 22 23  1  0
 22 24  2  0
M  END
$$$$
67
     RDKit          3D

 24 27  0  0  0  0  0  0  0  0999 V2000
   14.9044   36.6646   21.3127 C   0  0  0  0  0  0  0  0  0  0  0  0
   14.9525   37.1302   19.9616 N   0  0  0  0  0  0  0  0  0  0  0  0
   14.4495   36.4668   18.9837 C   0  0  0  0  0  0  0  0  0  0  0  0
   14.1154   35.5864   21.3651 C   0  0  0  0  0  0  0  0  0  0  0  0
   13.7198   34.9532   20.1617 C   0  0  0  0  0  0  0  0  0  0  0  0
   13.9287   35.3937   19.0735 C   0  0  1  0  0  0  0  0  0  0  0  0
   12.9510   33.6475   20.1198 N   0  0  0  0  0  0  0  0  0  0  0  0
   12.8615   33.3967   18.8063 C   0  0  0  0  0  0  0  0  0  0  0  0
   13.3859   34.4709   18.1250 N   0  0  0  0  0  0  0  0  0  0  0  0
   13.5224   34.5771   16.6637 C   0  0  2  0  0  0  0  0  0  0  0  0
   12.3678   34.9932   16.1332 C   0  0  0  0  0  0  0  0  0  0  0  0
   12.3195   35.0595   14.7149 C   0  0  0  0  0  0  0  0  0  0  0  0
   14.0672   33.4216   16.0683 C   0  0  0  0  0  0  0  0  0  0  0  0
   13.9674   33.4213   14.6399 C   0  0  0  0  0  0  0  0  0  0  0  0
   12.9181   34.1276   14.0358 C   0  0  2  0  0  0  0  0  0  0  0  0
   12.6485   33.9585   12.3999 C   0  0  0  0  0  0  0  0  0  0  0  0
   11.8279   34.6972   11.9024 O   0  0  0  0  0  0  0  0  0  0  0  0
   12.8955   32.8385   11.8391 N   0  0  0  0  0  0  0  0  0  0  0  0
   12.5487   32.5836   10.4535 C   0  0  0  0  0  0  0  0  0  0  0  0
   13.0970   31.4900   12.3937 C   0  0  0  0  0  0  0  0  0  0  0  0
   12.6639   30.9963   13.3131 O   0  0  0  0  0  0  0  0  0  0  0  0
   13.7493   30.5501   11.3659 C   0  0  1  0  0  0  0  0  0  0  0  0
   13.4262   31.3751   10.0516 C   0  0  0  0  0  0  0  0  0  0  0  0
   15.1525   30.6282   11.7026 O   0  0  0  0  0  0  0  0  0  0  0  0
  1  2  1  0
  2  3  1  0
  1  4  1  0
  4  5  1  0
  6  3  1  1
  5  6  1  0
  5  7  1  0
  7  8  1  0
  6  9  1  0
  8  9  1  0
 10  9  1  1
 10 11  1  0
 11 12  1  0
 10 13  1  0
 13 14  1  0
 12 15  1  0
 14 15  1  0
 15 16  1  6
 16 17  2  0
 16 18  1  0
 18 19  1  0
 18 20  1  0
 20 21  2  0
 20 22  1  0
 19 23  1  0
 22 23  1  0
 22 24  1  1
M  END
$$$$
68
     RDKit          3D

 24 27  0  0  0  0  0  0  0  0999 V2000
   15.6947   37.6955   19.5144 N   0  0  0  0  0  0  0  0  0  0  0  0
   14.8300   36.9216   19.5393 C   0  0  0  0  0  0  0  0  0  0  0  0
   13.8994   35.7911   19.3969 C   0  0  2  0  0  0  0  0  0  0  0  0
   13.4032   35.1794   20.2965 C   0  0  1  0  0  0  0  0  0  0  0  0
   13.9169   35.1720   18.0739 C   0  0  2  0  0  0  0  0  0  0  0  0
   13.4913   35.7021   21.7995 C   0  0  0  0  0  0  0  0  0  0  0  0
   12.6288   34.0514   20.0620 C   0  0  0  0  0  0  0  0  0  0  0  0
   14.5505   35.8198   16.8789 O   0  0  0  0  0  0  0  0  0  0  0  0
   12.5061   33.5045   18.8052 C   0  0  0  0  0  0  0  0  0  0  0  0
   13.2000   34.1162   17.6800 C   0  0  0  0  0  0  0  0  0  0  0  0
   14.2604   34.8793   15.8436 C   0  0  2  0  0  0  0  0  0  0  0  0
   14.6456   35.0208   14.5567 C   0  0  2  0  0  0  0  0  0  0  0  0
   13.3359   33.9122   16.3755 C   0  0  1  0  0  0  0  0  0  0  0  0
   12.9086   33.0109   15.4687 C   0  0  0  0  0  0  0  0  0  0  0  0
   15.3605   36.0565   14.0612 F   0  0  0  0  0  0  0  0  0  0  0  0
   14.0725   34.0522   13.6784 C   0  0  0  0  0  0  0  0  0  0  0  0
   13.2187   33.0640   14.1688 C   0  0  0  0  0  0  0  0  0  0  0  0
   12.7166   32.1214   13.1320 C   0  0  0  0  0  0  0  0  0  0  0  0
   13.5383   31.7058   12.1541 N   0  0  0  0  0  0  0  0  0  0  0  0
   13.0512   30.6931   11.1965 C   0  0  1  0  0  0  0  0  0  0  0  0
   13.9464   30.1446   10.4344 O   0  0  0  0  0  0  0  0  0  0  0  0
   12.2533   29.6017   11.9883 C   0  0  0  0  0  0  0  0  0  0  0  0
   11.4743   31.6411   13.2301 N   0  0  0  0  0  0  0  0  0  0  0  0
   11.1548   30.3685   12.6482 C   0  0  0  0  0  0  0  0  0  0  0  0
  1  2  3  0
  3  2  1  1
  3  4  1  0
  3  5  1  0
  4  6  1  6
  4  7  1  0
  5  8  1  6
  7  9  1  0
  5 10  1  0
  9 10  1  0
 11  8  1  6
 11 12  1  0
 10 13  1  0
 11 13  1  0
 13 14  1  1
 12 15  1  6
 12 16  1  0
 14 17  1  0
 16 17  1  0
 17 18  1  0
 18 19  2  0
 19 20  1  0
 20 21  1  1
 20 22  1  0
 18 23  1  0
 22 24  1  0
 23 24  1  0
M  END
$$$$
69
     RDKit          3D

 24 26  0  0  0  0  0  0  0  0999 V2000
   14.7242   37.9432   18.9816 O   0  0  0  0  0  0  0  0  0  0  0  0
   14.8309   36.9559   19.7210 S   0  0  0  0  0  0  0  0  0  0  0  0
   14.3287   35.5121   19.0577 C   0  0  1  0  0  0  0  0  0  0  0  0
   14.0418   36.9675   21.0472 O   0  0  0  0  0  0  0  0  0  0  0  0
   16.3475   36.3732   20.0672 O   0  0  0  0  0  0  0  0  0  0  0  0
   13.4078   34.5815   19.6348 C   0  0  2  0  0  0  0  0  0  0  0  0
   13.1955   34.4804   21.0150 O   0  0  0  0  0  0  0  0  0  0  0  0
   13.0504   33.4201   18.8952 C   0  0  0  0  0  0  0  0  0  0  0  0
   13.2428   33.3867   17.4871 C   0  0  1  0  0  0  0  0  0  0  0  0
   14.5728   35.3746   17.5945 C   0  0  0  0  0  0  0  0  0  0  0  0
   14.0187   34.2873   16.8625 C   0  0  0  0  0  0  0  0  0  0  0  0
   12.6603   32.2973   16.6975 O   0  0  0  0  0  0  0  0  0  0  0  0
   12.5586   32.5325   15.4914 C   0  0  0  0  0  0  0  0  0  0  0  0
   14.3604   34.2243   15.4410 C   0  0  0  0  0  0  0  0  0  0  0  0
   11.7047   31.6202   14.8572 C   0  0  0  0  0  0  0  0  0  0  0  0
   13.4384   33.2577   14.7411 C   0  0  2  0  0  0  0  0  0  0  0  0
   14.9750   35.0559   14.8727 O   0  0  0  0  0  0  0  0  0  0  0  0
   11.5224   31.5236   13.4042 C   0  0  0  0  0  0  0  0  0  0  0  0
   13.4368   33.1725   13.3085 C   0  0  0  0  0  0  0  0  0  0  0  0
   12.4660   32.4049   12.6943 C   0  0  0  0  0  0  0  0  0  0  0  0
   12.3672   32.3132   11.1846 C   0  0  0  0  0  0  0  0  0  0  0  0
   11.4376   32.8264   10.5915 O   0  0  0  0  0  0  0  0  0  0  0  0
   13.4150   31.7967   10.4700 N   0  0  0  0  0  0  0  0  0  0  0  0
   14.5224   31.1830   11.1503 O   0  0  0  0  0  0  0  0  0  0  0  0
  1  2  2  0
  3  2  1  6
  2  4  2  0
  2  5  1  0
  3  6  1  0
  6  7  1  1
  6  8  1  0
  9  8  1  1
  3 10  1  0
  9 11  1  0
 10 11  1  0
  9 12  1  0
 12 13  1  0
 11 14  1  0
 13 15  2  0
 13 16  1  0
 14 16  1  0
 14 17  2  0
 15 18  1  0
 16 19  1  6
 18 20  2  0
 19 20  1  0
 20 21  1  0
 21 22  2  0
 21 23  1  0
 23 24  1  0
M  END
$$$$
7
     RDKit          3D

 17 19  0  0  0  0  0  0  0  0999 V2000
   14.9044   36.6646   21.3127 C   0  0  0  0  0  0  0  0  0  0  0  0
   14.9525   37.1302   19.9616 N   0  0  0  0  0  0  0  0  0  0  0  0
   14.4495   36.4668   18.9837 C   0  0  0  0  0  0  0  0  0  0  0  0
   13.8406   35.1689   19.3201 C   0  0  0  0  0  0  0  0  0  0  0  0
   13.7439   34.7307   20.6397 C   0  0  0  0  0  0  0  0  0  0  0  0
   14.2436   35.5674   21.5952 C   0  0  0  0  0  0  0  0  0  0  0  0
   13.3054   34.3319   18.1337 C   0  0  1  0  0  0  0  0  0  0  0  0
   13.7498   33.2309   17.8287 N   0  0  0  0  0  0  0  0  0  0  0  0
   12.0262   34.6671   17.6063 N   0  0  0  0  0  0  0  0  0  0  0  0
   11.6933   33.6260   16.7175 C   0  0  1  0  0  0  0  0  0  0  0  0
   10.5966   33.4765   15.8693 C   0  0  0  0  0  0  0  0  0  0  0  0
   13.0263   32.6424   16.8411 C   0  0  0  0  0  0  0  0  0  0  0  0
    9.4135   33.8254   16.3810 C   0  0  0  0  0  0  0  0  0  0  0  0
    8.3273   33.4965   15.6798 C   0  0  0  0  0  0  0  0  0  0  0  0
    8.4118   32.9103   14.4161 C   0  0  0  0  0  0  0  0  0  0  0  0
   10.9530   33.1076   14.4544 C   0  0  0  0  0  0  0  0  0  0  0  0
    9.6767   32.7863   13.7892 C   0  0  0  0  0  0  0  0  0  0  0  0
  1  2  1  0
  2  3  1  0
  3  4  1  0
  4  5  1  0
  1  6  1  0
  5  6  1  0
  7  4  1  1
  7  8  1  0
  7  9  1  0
  9 10  1  0
 10 11  1  6
  8 12  1  0
 10 12  1  0
 11 13  1  0
 13 14  1  0
 14 15  1  0
 11 16  1  0
 15 17  1  0
 16 17  1  0
M  END
$$$$
70
     RDKit          3D

 24 26  0  0  0  0  0  0  0  0999 V2000
   13.7440   37.2699   20.6884 O   0  0  0  0  0  0  0  0  0  0  0  0
   14.8235   36.8113   20.1767 S   0  0  0  0  0  0  0  0  0  0  0  0
   14.4722   35.5369   19.1700 C   0  0  1  0  0  0  0  0  0  0  0  0
   13.5508   34.4712   19.6199 C   0  0  0  0  0  0  0  0  0  0  0  0
   13.0748   33.5836   18.6121 C   0  0  0  0  0  0  0  0  0  0  0  0
   14.6779   35.6149   17.6792 C   0  0  0  0  0  0  0  0  0  0  0  0
   15.8652   36.1858   21.1076 O   0  0  0  0  0  0  0  0  0  0  0  0
   15.7326   37.6563   19.0857 N   0  0  0  0  0  0  0  0  0  0  0  0
   14.1970   34.6115   16.8252 C   0  0  0  0  0  0  0  0  0  0  0  0
   13.3762   33.6002   17.3048 C   0  0  2  0  0  0  0  0  0  0  0  0
   12.7215   32.6277   16.3709 C   0  0  2  0  0  0  0  0  0  0  0  0
   13.3758   32.3146   15.2673 O   0  0  0  0  0  0  0  0  0  0  0  0
   11.3583   32.8832   16.0451 C   0  0  2  0  0  0  0  0  0  0  0  0
   11.0130   32.4085   14.7958 C   0  0  1  0  0  0  0  0  0  0  0  0
    9.8948   32.5560   14.1101 C   0  0  0  0  0  0  0  0  0  0  0  0
   12.3501   31.8484   14.2914 C   0  0  1  0  0  0  0  0  0  0  0  0
    9.6790   32.1708   12.7523 C   0  0  0  0  0  0  0  0  0  0  0  0
   12.4486   31.2780   13.0392 C   0  0  1  0  0  0  0  0  0  0  0  0
   11.0951   31.4189   12.2043 C   0  0  0  0  0  0  0  0  0  0  0  0
   13.4046   31.5598   12.1457 C   0  0  0  0  0  0  0  0  0  0  0  0
   13.3731   32.2593   11.2169 O   0  0  0  0  0  0  0  0  0  0  0  0
   14.4172   30.5343   11.9021 O   0  0  0  0  0  0  0  0  0  0  0  0
   10.5154   33.9736   16.6201 C   0  0  0  0  0  0  0  0  0  0  0  0
    9.5391   33.4784   17.6212 C   0  0  0  0  0  0  0  0  0  0  0  0
  1  2  2  0
  3  2  1  6
  3  4  1  0
  4  5  1  0
  3  6  1  0
  2  7  2  0
  2  8  1  0
  6  9  1  0
 10  5  1  6
  9 10  1  0
 10 11  1  0
 11 12  1  6
 11 13  1  0
 13 14  1  0
 14 15  1  6
 16 12  1  6
 14 16  1  0
 15 17  1  0
 16 18  1  0
 17 19  1  0
 18 19  1  0
 18 20  1  6
 20 21  2  0
 20 22  1  0
 13 23  1  6
 23 24  1  0
M  END
$$$$
71
     RDKit          3D

 24 26  0  0  0  0  0  0  0  0999 V2000
   14.9044   36.6646   21.3127 C   0  0  0  0  0  0  0  0  0  0  0  0
   14.1324   35.6102   21.0406 C   0  0  0  0  0  0  0  0  0  0  0  0
   15.1087   37.3851   20.1207 N   0  0  0  0  0  0  0  0  0  0  0  0
   13.9488   35.3581   19.6461 C   0  0  2  0  0  0  0  0  0  0  0  0
   14.5524   36.5916   19.0882 C   0  0  0  0  0  0  0  0  0  0  0  0
   13.1941   34.3943   18.9381 C   0  0  2  0  0  0  0  0  0  0  0  0
   13.2038   34.3955   17.5269 C   0  0  0  0  0  0  0  0  0  0  0  0
   12.5236   33.4554   16.7346 C   0  0  1  0  0  0  0  0  0  0  0  0
   13.9884   35.3875   16.7910 O   0  0  0  0  0  0  0  0  0  0  0  0
   11.5471   32.6697   17.4209 O   0  0  0  0  0  0  0  0  0  0  0  0
   10.6390   33.2965   18.2593 C   0  0  2  0  0  0  0  0  0  0  0  0
   12.1567   33.9510   15.5142 N   0  0  0  0  0  0  0  0  0  0  0  0
    9.4183   33.7331   17.6982 C   0  0  0  0  0  0  0  0  0  0  0  0
   12.6756   33.7058   14.2847 C   0  0  0  0  0  0  0  0  0  0  0  0
   12.0477   34.1744   19.8043 C   0  0  0  0  0  0  0  0  0  0  0  0
   10.9064   33.6584   19.5264 C   0  0  2  0  0  0  0  0  0  0  0  0
   10.1147   33.1973   20.5459 O   0  0  0  0  0  0  0  0  0  0  0  0
   13.3968   32.6585   14.0296 O   0  0  0  0  0  0  0  0  0  0  0  0
   12.7190   34.6004   13.1328 C   0  0  0  0  0  0  0  0  0  0  0  0
   13.4427   34.3242   11.9823 C   0  0  0  0  0  0  0  0  0  0  0  0
   13.2696   36.0839   13.4902 C   0  0  0  0  0  0  0  0  0  0  0  0
   13.1933   36.9833   12.4451 C   0  0  0  0  0  0  0  0  0  0  0  0
   13.3913   35.3238   10.8547 C   0  0  0  0  0  0  0  0  0  0  0  0
   13.7358   36.6445   11.2385 C   0  0  0  0  0  0  0  0  0  0  0  0
  1  2  1  0
  1  3  1  0
  4  2  1  1
  3  5  1  0
  4  5  1  0
  4  6  1  0
  6  7  1  0
  7  8  1  0
  7  9  1  0
  8 10  1  0
 10 11  1  0
  8 12  1  6
 11 13  1  6
 12 14  1  0
  6 15  1  6
 11 16  1  0
 15 16  1  0
 16 17  1  1
 14 18  2  0
 14 19  1  0
 19 20  1  0
 19 21  1  0
 21 22  1  0
 20 23  1  0
 22 24  1  0
 23 24  1  0
M  END
$$$$
72
     RDKit          3D

 24 26  0  0  0  0  0  0  0  0999 V2000
   14.3059   37.3963   21.0499 O   0  0  0  0  0  0  0  0  0  0  0  0
   15.1821   36.6791   20.1861 S   0  0  0  0  0  0  0  0  0  0  0  0
   16.3650   36.2414   20.8162 O   0  0  0  0  0  0  0  0  0  0  0  0
   14.3553   35.4774   19.5001 N   0  0  0  0  0  0  0  0  0  0  0  0
   14.1041   35.1836   18.2644 C   0  0  0  0  0  0  0  0  0  0  0  0
   13.4725   34.3001   17.8686 C   0  0  1  0  0  0  0  0  0  0  0  0
   15.7036   37.7385   19.0328 N   0  0  0  0  0  0  0  0  0  0  0  0
   14.8052   36.0269   17.3222 O   0  0  0  0  0  0  0  0  0  0  0  0
   13.4190   33.5906   16.6321 C   0  0  2  0  0  0  0  0  0  0  0  0
   12.5997   33.5830   18.7378 C   0  0  2  0  0  0  0  0  0  0  0  0
   11.7077   32.6717   18.1361 C   0  0  0  0  0  0  0  0  0  0  0  0
   14.1118   33.7641   15.4643 C   0  0  0  0  0  0  0  0  0  0  0  0
   12.2948   32.6148   16.6964 C   0  0  1  0  0  0  0  0  0  0  0  0
   12.2102   33.7393   20.2363 C   0  0  2  0  0  0  0  0  0  0  0  0
   13.1234   34.5158   21.0051 C   0  0  0  0  0  0  0  0  0  0  0  0
   11.2255   33.0901   20.7785 O   0  0  0  0  0  0  0  0  0  0  0  0
   14.0130   35.2140   20.8945 C   0  0  0  0  0  0  0  0  0  0  0  0
   11.8463   32.1664   15.4945 C   0  0  0  0  0  0  0  0  0  0  0  0
   15.1637   34.5204   15.4477 O   0  0  0  0  0  0  0  0  0  0  0  0
   12.5063   32.2745   14.3032 C   0  0  0  0  0  0  0  0  0  0  0  0
   13.6475   33.1043   14.3363 C   0  0  1  0  0  0  0  0  0  0  0  0
   14.1687   33.3112   13.1172 O   0  0  0  0  0  0  0  0  0  0  0  0
   12.1638   31.6939   13.0964 O   0  0  0  0  0  0  0  0  0  0  0  0
   11.2333   30.5933   13.1514 C   0  0  0  0  0  0  0  0  0  0  0  0
  1  2  2  0
  2  3  2  0
  2  4  1  0
  4  5  1  0
  6  5  1  1
  2  7  1  0
  5  8  2  0
  6  9  1  0
  6 10  1  0
 10 11  1  6
  9 12  1  6
  9 13  1  0
 13 11  1  6
 10 14  1  0
 14 15  1  0
 14 16  1  1
  4 17  1  0
 15 17  1  0
 13 18  1  0
 12 19  1  0
 18 20  1  0
 12 21  1  0
 20 21  1  0
 21 22  1  6
 20 23  1  0
 23 24  1  0
M  END
$$$$
73
     RDKit          3D

 24 26  0  0  0  0  0  0  0  0999 V2000
   15.7462   36.7685   20.4486 N   0  0  0  0  0  0  0  0  0  0  0  0
   14.4554   36.7646   20.6656 C   0  0  0  0  0  0  0  0  0  0  0  0
   13.7296   35.7638   19.9859 C   0  0  1  0  0  0  0  0  0  0  0  0
   13.7421   37.6227   21.4614 O   0  0  0  0  0  0  0  0  0  0  0  0
   13.9165   35.5689   18.5167 C   0  0  0  0  0  0  0  0  0  0  0  0
   14.5584   36.4624   17.8071 O   0  0  0  0  0  0  0  0  0  0  0  0
   12.9138   34.7889   20.6267 C   0  0  0  0  0  0  0  0  0  0  0  0
   13.3895   34.4633   17.9284 C   0  0  0  0  0  0  0  0  0  0  0  0
   12.6123   33.5364   18.5402 C   0  0  0  0  0  0  0  0  0  0  0  0
   13.6824   34.3158   16.4330 C   0  0  0  0  0  0  0  0  0  0  0  0
   12.0540   32.4559   17.7975 C   0  0  0  0  0  0  0  0  0  0  0  0
   12.3277   33.7106   19.9408 C   0  0  0  0  0  0  0  0  0  0  0  0
   13.1852   33.1934   15.7935 C   0  0  1  0  0  0  0  0  0  0  0  0
   12.3804   32.3094   16.4444 C   0  0  0  0  0  0  0  0  0  0  0  0
   13.3094   33.1046   14.3471 C   0  0  0  0  0  0  0  0  0  0  0  0
   13.1354   32.3040   13.6109 O   0  0  0  0  0  0  0  0  0  0  0  0
   13.5424   34.3050   13.5611 N   0  0  0  0  0  0  0  0  0  0  0  0
   13.6704   34.3532   12.1423 C   0  0  0  0  0  0  0  0  0  0  0  0
   14.2866   35.3818   11.5794 C   0  0  2  0  0  0  0  0  0  0  0  0
   13.1647   33.4183   11.1830 C   0  0  0  0  0  0  0  0  0  0  0  0
   14.4835   35.4465   10.4756 C   0  0  0  0  0  0  0  0  0  0  0  0
   13.4008   33.5260    9.8608 C   0  0  0  0  0  0  0  0  0  0  0  0
   14.9356   36.4654   12.6782 F   0  0  0  0  0  0  0  0  0  0  0  0
   14.1091   34.6579    9.4253 C   0  0  0  0  0  0  0  0  0  0  0  0
  1  2  1  0
  3  2  1  1
  2  4  2  0
  3  5  1  0
  5  6  2  0
  3  7  1  0
  5  8  1  0
  8  9  1  0
  8 10  1  0
  9 11  1  0
  7 12  1  0
  9 12  1  0
 10 13  1  0
 11 14  1  0
 13 14  1  0
 13 15  1  6
 15 16  2  0
 15 17  1  0
 17 18  1  0
 18 19  1  0
 18 20  1  0
 19 21  1  0
 20 22  1  0
 19 23  1  1
 21 24  1  0
 22 24  1  0
M  END
$$$$
74
     RDKit          3D

 25 27  0  0  0  0  0  0  0  0999 V2000
   13.9802   37.4141   21.1990 O   0  0  0  0  0  0  0  0  0  0  0  0
   14.3989   36.4215   20.5637 C   0  0  0  0  0  0  0  0  0  0  0  0
   13.5812   35.4427   20.0237 C   0  0  2  0  0  0  0  0  0  0  0  0
   15.7548   36.4304   20.1130 O   0  0  0  0  0  0  0  0  0  0  0  0
   12.7934   34.6405   20.7961 C   0  0  0  0  0  0  0  0  0  0  0  0
   13.6577   35.0910   18.5565 C   0  0  1  0  0  0  0  0  0  0  0  0
   12.9972   34.1527   18.1735 C   0  0  1  0  0  0  0  0  0  0  0  0
   14.2933   35.9378   17.4990 C   0  0  0  0  0  0  0  0  0  0  0  0
   12.1046   33.3397   19.0659 C   0  0  1  0  0  0  0  0  0  0  0  0
   11.4608   32.2399   18.3951 O   0  0  0  0  0  0  0  0  0  0  0  0
   12.9040   33.8590   16.8986 C   0  0  0  0  0  0  0  0  0  0  0  0
   11.9990   33.5194   20.3335 C   0  0  0  0  0  0  0  0  0  0  0  0
   10.1017   32.3826   18.4488 C   0  0  0  0  0  0  0  0  0  0  0  0
   14.2726   35.4713   16.2276 C   0  0  0  0  0  0  0  0  0  0  0  0
   12.1237   32.6690   16.3202 O   0  0  0  0  0  0  0  0  0  0  0  0
   13.4576   34.5643   15.8830 C   0  0  1  0  0  0  0  0  0  0  0  0
   12.2723   32.5851   14.9890 C   0  0  0  0  0  0  0  0  0  0  0  0
   13.1945   33.9671   14.5125 C   0  0  1  0  0  0  0  0  0  0  0  0
   12.6572   34.5355   13.5402 C   0  0  0  0  0  0  0  0  0  0  0  0
   12.9107   34.1924   12.1821 C   0  0  0  0  0  0  0  0  0  0  0  0
   13.5458   35.1185   11.3084 C   0  0  0  0  0  0  0  0  0  0  0  0
   12.3871   33.1780   11.8121 O   0  0  0  0  0  0  0  0  0  0  0  0
   14.9386   35.3703   11.5691 C   0  0  0  0  0  0  0  0  0  0  0  0
   15.6077   36.1285   10.7806 O   0  0  0  0  0  0  0  0  0  0  0  0
   15.2923   35.3074   12.8127 O   0  0  0  0  0  0  0  0  0  0  0  0
  1  2  2  0
  3  2  1  1
  2  4  1  0
  3  5  1  0
  3  6  1  0
  6  7  1  0
  6  8  1  6
  7  9  1  0
  9 10  1  1
  7 11  1  6
  5 12  1  0
  9 12  1  0
 10 13  1  0
  8 14  1  0
 11 15  1  0
 11 16  1  0
 16 14  1  1
 15 17  1  0
 16 18  1  0
 17 18  1  0
 18 19  1  6
 19 20  1  0
 20 21  1  0
 20 22  2  0
 21 23  1  0
 23 24  2  0
 23 25  1  0
M  END
$$$$
75
     RDKit          3D

 25 29  0  0  0  0  0  0  0  0999 V2000
   13.9802   37.4141   21.1990 O   0  0  0  0  0  0  0  0  0  0  0  0
   14.3989   36.4215   20.5637 C   0  0  0  0  0  0  0  0  0  0  0  0
   13.5812   35.4427   20.0237 C   0  0  2  0  0  0  0  0  0  0  0  0
   15.7548   36.4304   20.1130 O   0  0  0  0  0  0  0  0  0  0  0  0
   12.7934   34.6405   20.7961 C   0  0  0  0  0  0  0  0  0  0  0  0
   13.6577   35.0910   18.5565 C   0  0  1  0  0  0  0  0  0  0  0  0
   12.9972   34.1527   18.1735 C   0  0  1  0  0  0  0  0  0  0  0  0
   14.2933   35.9378   17.4990 C   0  0  0  0  0  0  0  0  0  0  0  0
   12.1046   33.3397   19.0659 C   0  0  1  0  0  0  0  0  0  0  0  0
   11.4608   32.2399   18.3951 O   0  0  0  0  0  0  0  0  0  0  0  0
   12.9040   33.8590   16.8986 C   0  0  2  0  0  0  0  0  0  0  0  0
   11.9990   33.5194   20.3335 C   0  0  0  0  0  0  0  0  0  0  0  0
   12.1694   32.8678   16.1857 C   0  0  2  0  0  0  0  0  0  0  0  0
   11.2864   32.2781   17.0393 C   0  0  0  0  0  0  0  0  0  0  0  0
   12.3637   32.3868   14.9142 C   0  0  2  0  0  0  0  0  0  0  0  0
   13.1821   33.2012   14.1494 C   0  0  1  0  0  0  0  0  0  0  0  0
   13.8557   34.3140   14.6742 C   0  0  0  0  0  0  0  0  0  0  0  0
   11.6351   31.2102   14.4635 C   0  0  0  0  0  0  0  0  0  0  0  0
   13.3981   32.7086   12.8711 C   0  0  0  0  0  0  0  0  0  0  0  0
   14.6246   35.0656   13.7940 O   0  0  0  0  0  0  0  0  0  0  0  0
   13.8175   34.6980   16.0536 C   0  0  1  0  0  0  0  0  0  0  0  0
   11.9576   30.8835   13.1325 C   0  0  0  0  0  0  0  0  0  0  0  0
   12.8124   31.6140   12.3340 C   0  0  2  0  0  0  0  0  0  0  0  0
   13.2404   31.0660   11.0858 O   0  0  0  0  0  0  0  0  0  0  0  0
   14.4477   30.5179   10.8447 C   0  0  0  0  0  0  0  0  0  0  0  0
  1  2  2  0
  3  2  1  1
  2  4  1  0
  3  5  1  0
  3  6  1  0
  6  7  1  0
  6  8  1  6
  7  9  1  6
  9 10  1  0
  7 11  1  0
  5 12  1  0
  9 12  1  1
 11 13  1  0
 10 14  1  0
 13 14  1  1
 13 15  1  0
 15 16  1  0
 16 17  1  0
 15 18  1  6
 16 19  1  1
 17 20  1  0
 21  8  1  6
 11 21  1  1
 17 21  1  0
 18 22  1  0
 19 23  1  0
 22 23  1  0
 23 24  1  1
 24 25  1  0
M  END
$$$$
76
     RDKit          3D

 25 28  0  0  0  0  0  0  0  0999 V2000
   14.0587   37.3627   21.3545 O   0  0  0  0  0  0  0  0  0  0  0  0
   14.3886   36.4086   20.6095 S   0  0  0  0  0  0  0  0  0  0  0  0
   15.7244   35.8759   20.9518 O   0  0  0  0  0  0  0  0  0  0  0  0
   13.5411   35.2306   20.2447 N   0  0  0  0  0  0  0  0  0  0  0  0
   14.4614   37.1573   19.0264 C   0  0  2  0  0  0  0  0  0  0  0  0
   13.3219   34.5405   19.1099 C   0  0  1  0  0  0  0  0  0  0  0  0
   13.6792   35.1924   17.8748 C   0  0  0  0  0  0  0  0  0  0  0  0
   13.4054   34.5197   16.6173 C   0  0  0  0  0  0  0  0  0  0  0  0
   13.0134   33.1763   18.8978 C   0  0  0  0  0  0  0  0  0  0  0  0
   14.3236   36.4586   17.8902 N   0  0  0  0  0  0  0  0  0  0  0  0
   12.9569   33.2846   16.5647 C   0  0  2  0  0  0  0  0  0  0  0  0
   14.8521   38.4583   19.0736 O   0  0  0  0  0  0  0  0  0  0  0  0
   13.6928   35.2994   15.4004 O   0  0  0  0  0  0  0  0  0  0  0  0
   12.6818   32.5801   15.2856 C   0  0  0  0  0  0  0  0  0  0  0  0
   12.6553   32.5831   17.7100 C   0  0  0  0  0  0  0  0  0  0  0  0
   11.6248   31.9158   15.0295 O   0  0  0  0  0  0  0  0  0  0  0  0
   13.3168   32.9855   14.1780 N   0  0  0  0  0  0  0  0  0  0  0  0
   13.3228   32.4001   12.9407 C   0  0  0  0  0  0  0  0  0  0  0  0
   13.3133   30.9542   12.8882 C   0  0  0  0  0  0  0  0  0  0  0  0
   13.3944   30.4608   11.5869 C   0  0  0  0  0  0  0  0  0  0  0  0
   13.4497   29.0113   11.3201 O   0  0  0  0  0  0  0  0  0  0  0  0
   13.3064   33.0130   11.7373 C   0  0  0  0  0  0  0  0  0  0  0  0
   13.9169   34.4073   14.1515 C   0  0  0  0  0  0  0  0  0  0  0  0
   13.3768   32.4105   10.6546 C   0  0  0  0  0  0  0  0  0  0  0  0
   13.4572   31.0087   10.3940 C   0  0  0  0  0  0  0  0  0  0  0  0
  1  2  2  0
  2  3  2  0
  2  4  1  0
  2  5  1  0
  4  6  1  0
  6  7  1  0
  7  8  1  0
  6  9  1  1
  5 10  1  0
  7 10  1  0
  8 11  1  0
  5 12  1  6
  8 13  1  0
 11 14  1  0
  9 15  1  0
 11 15  1  1
 14 16  2  0
 14 17  1  0
 17 18  1  0
 18 19  1  0
 19 20  1  0
 20 21  1  0
 18 22  1  0
 13 23  1  0
 17 23  1  0
 22 24  1  0
 20 25  1  0
 24 25  1  0
M  END
$$$$
77
     RDKit          3D

 25 27  0  0  0  0  0  0  0  0999 V2000
   15.0537   37.4130   20.3918 N   0  0  0  0  0  0  0  0  0  0  0  0
   14.1953   36.4566   20.2995 C   0  0  2  0  0  0  0  0  0  0  0  0
   13.3759   36.0923   21.2756 N   0  0  0  0  0  0  0  0  0  0  0  0
   12.7904   35.0089   21.2600 C   0  0  0  0  0  0  0  0  0  0  0  0
   12.7062   34.1086   20.2920 C   0  0  0  0  0  0  0  0  0  0  0  0
   14.1911   35.3959   19.1930 C   0  0  0  0  0  0  0  0  0  0  0  0
   13.4606   34.3332   19.1957 C   0  0  0  0  0  0  0  0  0  0  0  0
   11.9155   32.9097   20.3040 C   0  0  0  0  0  0  0  0  0  0  0  0
   13.4049   33.4635   18.1068 C   0  0  0  0  0  0  0  0  0  0  0  0
   10.9330   32.7624   21.0953 O   0  0  0  0  0  0  0  0  0  0  0  0
   12.6633   32.3318   18.1548 C   0  0  0  0  0  0  0  0  0  0  0  0
   12.0005   32.0408   19.2963 N   0  0  0  0  0  0  0  0  0  0  0  0
   14.2049   33.7612   16.9257 C   0  0  0  0  0  0  0  0  0  0  0  0
   13.8331   33.2829   15.7333 C   0  0  2  0  0  0  0  0  0  0  0  0
   14.1323   33.8314   14.5659 O   0  0  0  0  0  0  0  0  0  0  0  0
   13.3834   34.7372   13.7886 C   0  0  2  0  0  0  0  0  0  0  0  0
   13.8738   35.1903   12.6800 C   0  0  0  0  0  0  0  0  0  0  0  0
   12.3574   32.9748   15.3935 C   0  0  0  0  0  0  0  0  0  0  0  0
   12.8625   35.8234   14.7871 C   0  0  0  0  0  0  0  0  0  0  0  0
   13.8813   34.4239   11.6546 O   0  0  0  0  0  0  0  0  0  0  0  0
   14.4225   36.3358   12.4387 O   0  0  0  0  0  0  0  0  0  0  0  0
   11.4456   34.0037   15.2033 C   0  0  0  0  0  0  0  0  0  0  0  0
   11.7656   35.4324   15.4293 C   0  0  0  0  0  0  0  0  0  0  0  0
   10.7107   34.0016   13.9140 C   0  0  0  0  0  0  0  0  0  0  0  0
   10.4246   33.4366   16.4802 C   0  0  0  0  0  0  0  0  0  0  0  0
  2  1  1  1
  2  3  1  0
  3  4  1  0
  4  5  1  0
  2  6  1  0
  5  7  1  0
  6  7  1  0
  5  8  1  0
  7  9  1  0
  8 10  2  0
  9 11  1  0
  8 12  1  0
 11 12  1  0
  9 13  1  0
 14 13  1  1
 14 15  1  0
 15 16  1  0
 16 17  1  6
 14 18  1  0
 16 19  1  0
 17 20  1  0
 17 21  2  0
 18 22  1  0
 19 23  1  0
 22 23  1  0
 22 24  1  0
 22 25  1  0
M  END
$$$$
78
     RDKit          3D

 25 29  0  0  0  0  0  0  0  0999 V2000
   10.3865   32.8448   20.0220 C   0  0  0  0  0  0  0  0  0  0  0  0
   10.5425   32.9587   18.6913 C   0  0  2  0  0  0  0  0  0  0  0  0
   11.7721   33.2439   18.1133 C   0  0  1  0  0  0  0  0  0  0  0  0
   12.9377   33.5135   18.9569 C   0  0  0  0  0  0  0  0  0  0  0  0
   12.7772   33.4877   20.3511 C   0  0  0  0  0  0  0  0  0  0  0  0
   11.4776   33.1836   20.8980 C   0  0  0  0  0  0  0  0  0  0  0  0
   11.9708   33.2098   16.6734 C   0  0  2  0  0  0  0  0  0  0  0  0
   14.2569   33.8377   18.3117 C   0  0  0  0  0  0  0  0  0  0  0  0
   10.9341   32.9089   15.8018 C   0  0  0  0  0  0  0  0  0  0  0  0
   13.2437   33.3591   16.0837 C   0  0  2  0  0  0  0  0  0  0  0  0
    9.5737   32.9207   16.1132 C   0  0  0  0  0  0  0  0  0  0  0  0
   15.1157   34.3233   19.0744 O   0  0  0  0  0  0  0  0  0  0  0  0
    9.4008   32.8539   17.7187 C   0  0  0  0  0  0  0  0  0  0  0  0
   14.3035   33.7966   16.9830 N   0  0  0  0  0  0  0  0  0  0  0  0
   11.2539   32.5894   14.4241 C   0  0  0  0  0  0  0  0  0  0  0  0
   12.5804   32.8018   13.9676 C   0  0  1  0  0  0  0  0  0  0  0  0
   13.5575   33.2110   14.8247 C   0  0  0  0  0  0  0  0  0  0  0  0
   12.8584   32.4995   12.5557 C   0  0  0  0  0  0  0  0  0  0  0  0
   13.2185   31.3861   12.1797 N   0  0  0  0  0  0  0  0  0  0  0  0
   12.6044   33.5192   11.5347 N   0  0  0  0  0  0  0  0  0  0  0  0
   13.6326   30.9115   10.9834 C   0  0  0  0  0  0  0  0  0  0  0  0
   13.6063   31.8744    9.9556 C   0  0  0  0  0  0  0  0  0  0  0  0
   14.1762   29.7304   10.7330 O   0  0  0  0  0  0  0  0  0  0  0  0
   13.0621   33.2935   10.4106 C   0  0  0  0  0  0  0  0  0  0  0  0
   12.9281   34.1319    9.2949 O   0  0  0  0  0  0  0  0  0  0  0  0
  2  1  1  1
  2  3  1  0
  3  4  1  1
  4  5  1  0
  1  6  1  0
  5  6  1  0
  3  7  1  0
  4  8  1  0
  7  9  1  1
  7 10  1  0
  9 11  1  0
  8 12  2  0
  2 13  1  0
 11 13  1  0
  8 14  1  0
 10 14  1  0
  9 15  1  0
 15 16  1  0
 10 17  1  6
 16 17  1  0
 16 18  1  1
 18 19  2  0
 18 20  1  0
 19 21  1  0
 21 22  1  0
 21 23  2  0
 20 24  1  0
 22 24  1  0
 24 25  2  0
M  END
$$$$
79
     RDKit          3D

 25 28  0  0  0  0  0  0  0  0999 V2000
   15.6947   37.6955   19.5144 N   0  0  0  0  0  0  0  0  0  0  0  0
   14.8300   36.9216   19.5393 C   0  0  0  0  0  0  0  0  0  0  0  0
   13.8994   35.7911   19.3969 C   0  0  2  0  0  0  0  0  0  0  0  0
   13.4032   35.1794   20.2965 C   0  0  1  0  0  0  0  0  0  0  0  0
   13.9169   35.1720   18.0739 C   0  0  2  0  0  0  0  0  0  0  0  0
   13.4913   35.7021   21.7995 C   0  0  0  0  0  0  0  0  0  0  0  0
   12.6288   34.0514   20.0620 C   0  0  0  0  0  0  0  0  0  0  0  0
   14.5505   35.8198   16.8789 O   0  0  0  0  0  0  0  0  0  0  0  0
   12.5061   33.5045   18.8052 C   0  0  0  0  0  0  0  0  0  0  0  0
   13.2000   34.1162   17.6800 C   0  0  0  0  0  0  0  0  0  0  0  0
   14.2604   34.8793   15.8436 C   0  0  2  0  0  0  0  0  0  0  0  0
   14.6456   35.0208   14.5567 C   0  0  2  0  0  0  0  0  0  0  0  0
   13.3359   33.9122   16.3755 C   0  0  1  0  0  0  0  0  0  0  0  0
   12.9086   33.0109   15.4687 C   0  0  0  0  0  0  0  0  0  0  0  0
   15.3605   36.0565   14.0612 F   0  0  0  0  0  0  0  0  0  0  0  0
   14.0725   34.0522   13.6784 C   0  0  0  0  0  0  0  0  0  0  0  0
   13.2187   33.0640   14.1688 C   0  0  0  0  0  0  0  0  0  0  0  0
   12.7166   32.1214   13.1320 C   0  0  0  0  0  0  0  0  0  0  0  0
   13.5383   31.7058   12.1541 N   0  0  0  0  0  0  0  0  0  0  0  0
   13.0512   30.6931   11.1965 C   0  0  0  0  0  0  0  0  0  0  0  0
   12.4455   29.7499   11.8567 O   0  0  0  0  0  0  0  0  0  0  0  0
   11.4971   30.1541   12.7269 C   0  0  0  0  0  0  0  0  0  0  0  0
   11.7669   31.2030   13.5494 C   0  0  0  0  0  0  0  0  0  0  0  0
   13.8322   30.4480   10.0995 C   0  0  0  0  0  0  0  0  0  0  0  0
   15.1018   30.0433    9.9935 C   0  0  0  0  0  0  0  0  0  0  0  0
  1  2  3  0
  3  2  1  1
  3  4  1  0
  3  5  1  0
  4  6  1  6
  4  7  1  0
  5  8  1  6
  7  9  1  0
  5 10  1  0
  9 10  1  0
 11  8  1  6
 11 12  1  0
 10 13  1  0
 11 13  1  0
 13 14  1  1
 12 15  1  6
 12 16  1  0
 14 17  1  0
 16 17  1  0
 17 18  1  0
 18 19  2  0
 19 20  1  0
 20 21  1  0
 21 22  1  0
 18 23  1  0
 22 23  1  0
 20 24  2  3
 24 25  1  0
M  END
$$$$
8
     RDKit          3D

 17 18  0  0  0  0  0  0  0  0999 V2000
   14.0587   37.3627   21.3545 O   0  0  0  0  0  0  0  0  0  0  0  0
   14.3886   36.4086   20.6095 S   0  0  0  0  0  0  0  0  0  0  0  0
   15.7244   35.8759   20.9518 O   0  0  0  0  0  0  0  0  0  0  0  0
   13.5411   35.2306   20.2447 N   0  0  0  0  0  0  0  0  0  0  0  0
   14.4614   37.1573   19.0264 C   0  0  2  0  0  0  0  0  0  0  0  0
   13.3219   34.5405   19.1099 C   0  0  1  0  0  0  0  0  0  0  0  0
   13.6792   35.1924   17.8748 C   0  0  0  0  0  0  0  0  0  0  0  0
   13.4054   34.5197   16.6173 C   0  0  0  0  0  0  0  0  0  0  0  0
   13.0134   33.1763   18.8978 C   0  0  0  0  0  0  0  0  0  0  0  0
   14.3236   36.4586   17.8902 N   0  0  0  0  0  0  0  0  0  0  0  0
   12.9569   33.2846   16.5647 C   0  0  2  0  0  0  0  0  0  0  0  0
   14.8521   38.4583   19.0736 O   0  0  0  0  0  0  0  0  0  0  0  0
   13.6928   35.2994   15.4004 O   0  0  0  0  0  0  0  0  0  0  0  0
   12.6818   32.5801   15.2856 C   0  0  0  0  0  0  0  0  0  0  0  0
   12.6553   32.5831   17.7100 C   0  0  0  0  0  0  0  0  0  0  0  0
   11.6248   31.9158   15.0295 O   0  0  0  0  0  0  0  0  0  0  0  0
   13.6952   32.6661   14.4534 O   0  0  0  0  0  0  0  0  0  0  0  0
  1  2  2  0
  2  3  2  0
  2  4  1  0
  2  5  1  0
  4  6  1  0
  6  7  1  0
  7  8  1  0
  6  9  1  1
  5 10  1  0
  7 10  1  0
  8 11  1  0
  5 12  1  6
  8 13  1  0
 11 14  1  6
  9 15  1  0
 11 15  1  0
 14 16  2  0
 14 17  1  0
M  END
$$$$
80
     RDKit          3D

 25 28  0  0  0  0  0  0  0  0999 V2000
   10.3865   32.8448   20.0220 C   0  0  0  0  0  0  0  0  0  0  0  0
   11.3371   33.3840   20.5481 C   0  0  0  0  0  0  0  0  0  0  0  0
   12.4333   33.7033   19.6782 C   0  0  0  0  0  0  0  0  0  0  0  0
   12.2891   33.5199   18.5169 C   0  0  0  0  0  0  0  0  0  0  0  0
   10.1238   32.6819   18.7002 C   0  0  0  0  0  0  0  0  0  0  0  0
   11.2044   32.9946   17.8180 C   0  0  0  0  0  0  0  0  0  0  0  0
   13.4356   33.8380   17.4419 C   0  0  0  0  0  0  0  0  0  0  0  0
   14.4306   34.6279   17.8528 O   0  0  0  0  0  0  0  0  0  0  0  0
   13.5033   33.0205   16.4029 N   0  0  0  0  0  0  0  0  0  0  0  0
   11.1193   32.8286   16.4075 C   0  0  1  0  0  0  0  0  0  0  0  0
   12.3028   32.8325   15.6759 C   0  0  2  0  0  0  0  0  0  0  0  0
   12.4791   32.4633   14.3757 C   0  0  0  0  0  0  0  0  0  0  0  0
   13.6980   32.3932   13.7323 O   0  0  0  0  0  0  0  0  0  0  0  0
   10.0826   32.4032   15.6173 C   0  0  0  0  0  0  0  0  0  0  0  0
   13.7529   32.6770   12.3627 C   0  0  0  0  0  0  0  0  0  0  0  0
   11.3480   32.1219   13.6458 C   0  0  0  0  0  0  0  0  0  0  0  0
   10.0939   32.1854   14.3035 C   0  0  0  0  0  0  0  0  0  0  0  0
   13.5668   31.7607   11.4989 C   0  0  0  0  0  0  0  0  0  0  0  0
   13.9458   33.9538   11.9490 C   0  0  1  0  0  0  0  0  0  0  0  0
   14.2054   35.0748   12.8746 C   0  0  0  0  0  0  0  0  0  0  0  0
   14.1205   34.2797   10.5247 C   0  0  0  0  0  0  0  0  0  0  0  0
   13.7403   31.9259   10.1060 C   0  0  0  0  0  0  0  0  0  0  0  0
   13.9973   33.1962    9.6507 C   0  0  0  0  0  0  0  0  0  0  0  0
   13.5720   35.3184   13.8614 O   0  0  0  0  0  0  0  0  0  0  0  0
   15.0749   35.9949   12.4159 O   0  0  0  0  0  0  0  0  0  0  0  0
  1  2  1  0
  2  3  1  0
  3  4  1  0
  1  5  1  0
  4  6  1  0
  5  6  1  0
  4  7  1  0
  7  8  2  0
  7  9  1  0
  6 10  1  0
 11  9  1  1
 10 11  1  0
 11 12  1  0
 12 13  1  0
 10 14  1  1
 13 15  1  0
 12 16  1  0
 14 17  1  0
 16 17  1  0
 15 18  1  0
 15 19  1  0
 19 20  1  1
 19 21  1  0
 18 22  1  0
 21 23  1  0
 22 23  1  0
 20 24  2  0
 20 25  1  0
M  END
$$$$
81
     RDKit          3D

 25 28  0  0  0  0  0  0  0  0999 V2000
   14.9044   36.6646   21.3127 C   0  0  0  0  0  0  0  0  0  0  0  0
   14.1324   35.6102   21.0406 C   0  0  0  0  0  0  0  0  0  0  0  0
   15.1087   37.3851   20.1207 N   0  0  0  0  0  0  0  0  0  0  0  0
   13.8902   35.0738   19.7853 C   0  0  2  0  0  0  0  0  0  0  0  0
   14.9193   36.9905   18.9014 C   0  0  0  0  0  0  0  0  0  0  0  0
   14.2562   35.8065   18.7189 C   0  0  1  0  0  0  0  0  0  0  0  0
   13.9496   35.2096   17.4272 C   0  0  1  0  0  0  0  0  0  0  0  0
   13.1783   33.9496   19.2722 N   0  0  0  0  0  0  0  0  0  0  0  0
   14.2092   35.5433   16.1897 N   0  0  0  0  0  0  0  0  0  0  0  0
   13.7834   34.7666   15.1779 C   0  0  2  0  0  0  0  0  0  0  0  0
   12.5168   32.9869   19.9800 C   0  0  0  0  0  0  0  0  0  0  0  0
   11.1021   33.2628   20.2741 C   0  0  0  0  0  0  0  0  0  0  0  0
   13.3602   33.5227   15.7591 N   0  0  0  0  0  0  0  0  0  0  0  0
   13.4422   33.8613   17.1379 C   0  0  2  0  0  0  0  0  0  0  0  0
   13.9042   35.1155   13.7549 C   0  0  2  0  0  0  0  0  0  0  0  0
   13.9870   36.2983   13.3259 C   0  0  0  0  0  0  0  0  0  0  0  0
   13.0139   33.1459   18.2541 C   0  0  0  0  0  0  0  0  0  0  0  0
   14.0172   36.3662   12.0670 C   0  0  0  0  0  0  0  0  0  0  0  0
   14.0433   35.4106   11.1197 C   0  0  0  0  0  0  0  0  0  0  0  0
   13.8096   33.8860   12.9129 C   0  0  0  0  0  0  0  0  0  0  0  0
   13.8727   34.0945   11.5923 C   0  0  2  0  0  0  0  0  0  0  0  0
   13.8459   32.8281   10.4764 S   0  0  0  0  0  0  0  0  0  0  0  0
   12.5680   32.4611   10.2530 O   0  0  0  0  0  0  0  0  0  0  0  0
   14.5829   33.1727    9.1963 O   0  0  0  0  0  0  0  0  0  0  0  0
   14.6534   31.4709   11.0357 N   0  0  0  0  0  0  0  0  0  0  0  0
  1  2  1  0
  1  3  1  0
  4  2  1  1
  3  5  1  0
  4  6  1  0
  6  5  1  6
  6  7  1  0
  4  8  1  0
  7  9  1  6
 10  9  1  1
  8 11  1  0
 11 12  1  0
 10 13  1  0
  7 14  1  0
 13 14  1  0
 10 15  1  0
 15 16  1  6
  8 17  1  0
 14 17  1  6
 16 18  1  0
 18 19  1  0
 15 20  1  0
 19 21  1  0
 20 21  1  0
 21 22  1  1
 22 23  2  0
 22 24  2  0
 22 25  1  0
M  END
$$$$
82
     RDKit          3D

 25 26  0  0  0  0  0  0  0  0999 V2000
   14.7242   37.9432   18.9816 O   0  0  0  0  0  0  0  0  0  0  0  0
   14.6736   36.8347   19.3784 S   0  0  0  0  0  0  0  0  0  0  0  0
   14.1436   36.6336   20.8292 N   0  0  0  0  0  0  0  0  0  0  0  0
   16.0951   36.1422   19.2195 O   0  0  0  0  0  0  0  0  0  0  0  0
   13.7745   35.7960   18.4711 C   0  0  2  0  0  0  0  0  0  0  0  0
   13.3530   34.4682   18.8567 C   0  0  1  0  0  0  0  0  0  0  0  0
   13.7422   34.0217   20.2145 O   0  0  0  0  0  0  0  0  0  0  0  0
   12.4043   33.6875   18.2913 C   0  0  0  0  0  0  0  0  0  0  0  0
   12.0250   33.8945   16.9393 C   0  0  0  0  0  0  0  0  0  0  0  0
   11.0883   32.9861   16.2940 C   0  0  2  0  0  0  0  0  0  0  0  0
   12.5297   34.9526   16.1249 C   0  0  0  0  0  0  0  0  0  0  0  0
   13.3161   36.1458   17.0267 C   0  0  0  0  0  0  0  0  0  0  0  0
   11.4614   32.2070   15.1456 C   0  0  1  0  0  0  0  0  0  0  0  0
    9.7612   33.0264   16.6662 C   0  0  0  0  0  0  0  0  0  0  0  0
    8.7795   32.3150   15.9442 F   0  0  0  0  0  0  0  0  0  0  0  0
    9.6143   32.7798   18.0322 F   0  0  0  0  0  0  0  0  0  0  0  0
    9.1851   34.3017   16.8360 F   0  0  0  0  0  0  0  0  0  0  0  0
   10.7444   31.4163   14.3254 C   0  0  0  0  0  0  0  0  0  0  0  0
   11.3343   30.6828   13.2808 C   0  0  0  0  0  0  0  0  0  0  0  0
   12.4277   30.9586   12.9262 C   0  0  1  0  0  0  0  0  0  0  0  0
   12.8921   32.3866   14.7188 C   0  0  0  0  0  0  0  0  0  0  0  0
   13.3347   31.7360   13.6400 N   0  0  0  0  0  0  0  0  0  0  0  0
   13.0297   30.1377   11.8538 C   0  0  0  0  0  0  0  0  0  0  0  0
   14.2171   30.4141   11.3449 O   0  0  0  0  0  0  0  0  0  0  0  0
   12.4366   29.1210   11.2830 O   0  0  0  0  0  0  0  0  0  0  0  0
  1  2  2  0
  2  3  1  0
  2  4  2  0
  5  2  1  6
  5  6  1  0
  6  7  1  1
  6  8  1  0
  8  9  1  0
  9 10  1  0
  9 11  1  0
  5 12  1  0
 11 12  1  0
 10 13  1  0
 10 14  1  6
 14 15  1  0
 14 16  1  0
 14 17  1  0
 13 18  1  6
 18 19  1  0
 19 20  1  0
 13 21  1  0
 20 22  1  0
 21 22  1  0
 20 23  1  1
 23 24  2  0
 23 25  1  0
M  END
$$$$
83
     RDKit          3D

 25 26  0  0  0  0  0  0  0  0999 V2000
   14.7242   37.9432   18.9816 O   0  0  0  0  0  0  0  0  0  0  0  0
   14.6736   36.8347   19.3784 S   0  0  0  0  0  0  0  0  0  0  0  0
   14.1436   36.6336   20.8292 N   0  0  0  0  0  0  0  0  0  0  0  0
   16.0951   36.1422   19.2195 O   0  0  0  0  0  0  0  0  0  0  0  0
   13.7745   35.7960   18.4711 C   0  0  2  0  0  0  0  0  0  0  0  0
   13.3530   34.4682   18.8567 C   0  0  1  0  0  0  0  0  0  0  0  0
   13.7422   34.0217   20.2145 O   0  0  0  0  0  0  0  0  0  0  0  0
   12.4043   33.6875   18.2913 C   0  0  0  0  0  0  0  0  0  0  0  0
   12.0250   33.8945   16.9393 C   0  0  0  0  0  0  0  0  0  0  0  0
   11.0883   32.9861   16.2940 C   0  0  2  0  0  0  0  0  0  0  0  0
   12.5297   34.9526   16.1249 C   0  0  0  0  0  0  0  0  0  0  0  0
   13.3161   36.1458   17.0267 C   0  0  0  0  0  0  0  0  0  0  0  0
   11.4614   32.2070   15.1456 C   0  0  0  0  0  0  0  0  0  0  0  0
    9.7612   33.0264   16.6662 C   0  0  0  0  0  0  0  0  0  0  0  0
    8.7795   32.3150   15.9442 F   0  0  0  0  0  0  0  0  0  0  0  0
    9.6143   32.7798   18.0322 F   0  0  0  0  0  0  0  0  0  0  0  0
    9.1851   34.3017   16.8360 F   0  0  0  0  0  0  0  0  0  0  0  0
   10.7444   31.4163   14.3254 C   0  0  0  0  0  0  0  0  0  0  0  0
   11.3343   30.6828   13.2808 C   0  0  0  0  0  0  0  0  0  0  0  0
   10.5057   29.8706   12.4314 O   0  0  0  0  0  0  0  0  0  0  0  0
   12.9556   32.3312   14.7340 C   0  0  0  0  0  0  0  0  0  0  0  0
   12.6694   30.7381   13.0181 C   0  0  2  0  0  0  0  0  0  0  0  0
   13.3435   31.6264   13.7766 C   0  0  0  0  0  0  0  0  0  0  0  0
   13.1314   29.9259   11.9659 O   0  0  0  0  0  0  0  0  0  0  0  0
   13.7524   30.4381   10.9106 C   0  0  0  0  0  0  0  0  0  0  0  0
  1  2  2  0
  2  3  1  0
  2  4  2  0
  5  2  1  6
  5  6  1  0
  6  7  1  1
  6  8  1  0
  8  9  1  0
  9 10  1  0
  9 11  1  0
  5 12  1  0
 11 12  1  0
 10 13  1  0
 10 14  1  6
 14 15  1  0
 14 16  1  0
 14 17  1  0
 13 18  1  0
 18 19  1  0
 19 20  1  0
 13 21  1  0
 19 22  1  0
 21 23  1  0
 22 23  1  0
 22 24  1  6
 24 25  1  0
M  END
$$$$
84
     RDKit          3D

 25 27  0  0  0  0  0  0  0  0999 V2000
   14.7242   37.9432   18.9816 O   0  0  0  0  0  0  0  0  0  0  0  0
   14.8309   36.9559   19.7210 S   0  0  0  0  0  0  0  0  0  0  0  0
   14.3287   35.5121   19.0577 C   0  0  1  0  0  0  0  0  0  0  0  0
   14.0418   36.9675   21.0472 O   0  0  0  0  0  0  0  0  0  0  0  0
   16.3475   36.3732   20.0672 O   0  0  0  0  0  0  0  0  0  0  0  0
   13.4078   34.5815   19.6348 C   0  0  2  0  0  0  0  0  0  0  0  0
   13.1955   34.4804   21.0150 O   0  0  0  0  0  0  0  0  0  0  0  0
   13.0504   33.4201   18.8952 C   0  0  0  0  0  0  0  0  0  0  0  0
   13.2428   33.3867   17.4871 C   0  0  1  0  0  0  0  0  0  0  0  0
   14.5728   35.3746   17.5945 C   0  0  0  0  0  0  0  0  0  0  0  0
   14.0187   34.2873   16.8625 C   0  0  0  0  0  0  0  0  0  0  0  0
   12.6603   32.2973   16.6975 O   0  0  0  0  0  0  0  0  0  0  0  0
   12.5586   32.5325   15.4914 C   0  0  0  0  0  0  0  0  0  0  0  0
   14.3604   34.2243   15.4410 C   0  0  0  0  0  0  0  0  0  0  0  0
   11.7047   31.6202   14.8572 C   0  0  0  0  0  0  0  0  0  0  0  0
   13.4384   33.2577   14.7411 C   0  0  2  0  0  0  0  0  0  0  0  0
   14.9750   35.0559   14.8727 O   0  0  0  0  0  0  0  0  0  0  0  0
   11.5224   31.5236   13.4042 C   0  0  0  0  0  0  0  0  0  0  0  0
   13.4368   33.1725   13.3085 C   0  0  0  0  0  0  0  0  0  0  0  0
   12.4660   32.4049   12.6943 C   0  0  0  0  0  0  0  0  0  0  0  0
   12.3672   32.3132   11.1846 C   0  0  0  0  0  0  0  0  0  0  0  0
   11.4376   32.8264   10.5915 O   0  0  0  0  0  0  0  0  0  0  0  0
   13.4150   31.7967   10.4700 N   0  0  0  0  0  0  0  0  0  0  0  0
   14.5224   31.1830   11.1503 C   0  0  0  0  0  0  0  0  0  0  0  0
   13.3044   31.6119    9.0800 C   0  0  0  0  0  0  0  0  0  0  0  0
  1  2  2  0
  3  2  1  6
  2  4  2  0
  2  5  1  0
  3  6  1  0
  6  7  1  1
  6  8  1  0
  9  8  1  1
  3 10  1  0
  9 11  1  0
 10 11  1  0
  9 12  1  0
 12 13  1  0
 11 14  1  0
 13 15  2  0
 13 16  1  0
 14 16  1  0
 14 17  2  0
 15 18  1  0
 16 19  1  6
 18 20  2  0
 19 20  1  0
 20 21  1  0
 21 22  2  0
 21 23  1  0
 23 24  1  0
 23 25  1  0
M  END
$$$$
85
     RDKit          3D

 25 27  0  0  0  0  0  0  0  0999 V2000
   13.7440   37.2699   20.6884 O   0  0  0  0  0  0  0  0  0  0  0  0
   14.8235   36.8113   20.1767 S   0  0  0  0  0  0  0  0  0  0  0  0
   14.4722   35.5369   19.1700 C   0  0  1  0  0  0  0  0  0  0  0  0
   13.5508   34.4712   19.6199 C   0  0  0  0  0  0  0  0  0  0  0  0
   13.0748   33.5836   18.6121 C   0  0  2  0  0  0  0  0  0  0  0  0
   14.6779   35.6149   17.6792 C   0  0  0  0  0  0  0  0  0  0  0  0
   15.8652   36.1858   21.1076 O   0  0  0  0  0  0  0  0  0  0  0  0
   15.7326   37.6563   19.0857 N   0  0  0  0  0  0  0  0  0  0  0  0
   14.1970   34.6115   16.8252 C   0  0  0  0  0  0  0  0  0  0  0  0
   13.3762   33.6002   17.3048 C   0  0  2  0  0  0  0  0  0  0  0  0
   12.7215   32.6277   16.3709 C   0  0  2  0  0  0  0  0  0  0  0  0
   13.3758   32.3146   15.2673 O   0  0  0  0  0  0  0  0  0  0  0  0
   11.3583   32.8832   16.0451 C   0  0  0  0  0  0  0  0  0  0  0  0
   11.0130   32.4085   14.7958 C   0  0  0  0  0  0  0  0  0  0  0  0
   10.3730   33.5581   16.8829 C   0  0  2  0  0  0  0  0  0  0  0  0
   10.6332   33.6768   18.2223 C   0  0  0  0  0  0  0  0  0  0  0  0
   11.8263   33.4313   19.0179 C   0  0  1  0  0  0  0  0  0  0  0  0
   11.5489   32.7111   20.3637 C   0  0  0  0  0  0  0  0  0  0  0  0
   12.3645   31.9299   14.2918 C   0  0  1  0  0  0  0  0  0  0  0  0
    9.0566   33.5565   16.4040 C   0  0  0  0  0  0  0  0  0  0  0  0
   12.4907   32.0965   12.9626 C   0  0  0  0  0  0  0  0  0  0  0  0
   13.3594   31.2747   12.2144 N   0  0  0  0  0  0  0  0  0  0  0  0
   12.1075   33.0547   12.3411 O   0  0  0  0  0  0  0  0  0  0  0  0
   13.7623   31.3905   10.8320 C   0  0  0  0  0  0  0  0  0  0  0  0
   14.5080   30.4098   10.2986 C   0  0  0  0  0  0  0  0  0  0  0  0
  1  2  2  0
  3  2  1  6
  3  4  1  0
  5  4  1  6
  3  6  1  0
  2  7  2  0
  2  8  1  0
  6  9  1  0
  5 10  1  0
 10  9  1  6
 10 11  1  0
 11 12  1  6
 11 13  1  0
 13 14  1  0
 13 15  1  0
 15 16  1  0
  5 17  1  0
 16 17  1  0
 17 18  1  6
 12 19  1  0
 14 19  1  0
 15 20  1  1
 19 21  1  6
 21 22  1  0
 21 23  2  0
 22 24  1  0
 24 25  1  0
M  END
$$$$
86
     RDKit          3D

 25 27  0  0  0  0  0  0  0  0999 V2000
   14.7242   37.9432   18.9816 O   0  0  0  0  0  0  0  0  0  0  0  0
   14.8309   36.9559   19.7210 S   0  0  0  0  0  0  0  0  0  0  0  0
   14.3287   35.5121   19.0577 C   0  0  1  0  0  0  0  0  0  0  0  0
   14.0418   36.9675   21.0472 O   0  0  0  0  0  0  0  0  0  0  0  0
   16.3475   36.3732   20.0672 O   0  0  0  0  0  0  0  0  0  0  0  0
   13.4078   34.5815   19.6348 C   0  0  2  0  0  0  0  0  0  0  0  0
   13.1955   34.4804   21.0150 O   0  0  0  0  0  0  0  0  0  0  0  0
   13.0504   33.4201   18.8952 C   0  0  0  0  0  0  0  0  0  0  0  0
   13.2428   33.3867   17.4871 C   0  0  1  0  0  0  0  0  0  0  0  0
   14.5728   35.3746   17.5945 C   0  0  0  0  0  0  0  0  0  0  0  0
   14.0187   34.2873   16.8625 C   0  0  0  0  0  0  0  0  0  0  0  0
   12.6603   32.2973   16.6975 O   0  0  0  0  0  0  0  0  0  0  0  0
   12.5586   32.5325   15.4914 C   0  0  0  0  0  0  0  0  0  0  0  0
   14.3604   34.2243   15.4410 C   0  0  0  0  0  0  0  0  0  0  0  0
   11.7047   31.6202   14.8572 C   0  0  0  0  0  0  0  0  0  0  0  0
   13.4384   33.2577   14.7411 C   0  0  2  0  0  0  0  0  0  0  0  0
   14.9750   35.0559   14.8727 O   0  0  0  0  0  0  0  0  0  0  0  0
   11.5224   31.5236   13.4042 C   0  0  0  0  0  0  0  0  0  0  0  0
   13.4368   33.1725   13.3085 C   0  0  0  0  0  0  0  0  0  0  0  0
   12.4660   32.4049   12.6943 C   0  0  0  0  0  0  0  0  0  0  0  0
   12.3672   32.3132   11.1846 C   0  0  0  0  0  0  0  0  0  0  0  0
   11.4376   32.8264   10.5915 O   0  0  0  0  0  0  0  0  0  0  0  0
   13.4150   31.7967   10.4700 N   0  0  0  0  0  0  0  0  0  0  0  0
   13.4525   31.7720    9.0172 C   0  0  0  0  0  0  0  0  0  0  0  0
   14.8743   32.0452   10.8222 O   0  0  0  0  0  0  0  0  0  0  0  0
  1  2  2  0
  3  2  1  6
  2  4  2  0
  2  5  1  0
  3  6  1  0
  6  7  1  1
  6  8  1  0
  9  8  1  1
  3 10  1  0
  9 11  1  0
 10 11  1  0
  9 12  1  0
 12 13  1  0
 11 14  1  0
 13 15  2  0
 13 16  1  0
 14 16  1  0
 14 17  2  0
 15 18  1  0
 16 19  1  6
 18 20  2  0
 19 20  1  0
 20 21  1  0
 21 22  2  0
 21 23  1  0
 23 24  1  0
 23 25  1  0
M  END
$$$$
87
     RDKit          3D

 25 27  0  0  0  0  0  0  0  0999 V2000
   14.2416   37.5517   20.2016 O   0  0  0  0  0  0  0  0  0  0  0  0
   14.6682   36.4807   19.8442 C   0  0  0  0  0  0  0  0  0  0  0  0
   13.6986   35.5497   19.3490 C   0  0  2  0  0  0  0  0  0  0  0  0
   15.9303   36.4127   19.3203 O   0  0  0  0  0  0  0  0  0  0  0  0
   13.1421   34.6481   20.3964 C   0  0  0  0  0  0  0  0  0  0  0  0
   12.2881   33.5994   20.0130 C   0  0  0  0  0  0  0  0  0  0  0  0
   13.2603   35.2135   18.0414 C   0  0  0  0  0  0  0  0  0  0  0  0
   12.4795   34.2231   17.6542 C   0  0  0  0  0  0  0  0  0  0  0  0
   11.9150   33.4359   18.6707 C   0  0  0  0  0  0  0  0  0  0  0  0
   12.1889   33.9572   16.2632 C   0  0  1  0  0  0  0  0  0  0  0  0
   11.1156   33.0621   15.9865 C   0  0  0  0  0  0  0  0  0  0  0  0
   12.7989   34.6731   15.1475 C   0  0  1  0  0  0  0  0  0  0  0  0
   13.8670   35.3072   15.2198 O   0  0  0  0  0  0  0  0  0  0  0  0
   10.7267   32.8961   14.5539 C   0  0  0  0  0  0  0  0  0  0  0  0
   12.5530   34.2128   13.7779 C   0  0  1  0  0  0  0  0  0  0  0  0
   11.4817   33.3386   13.5422 C   0  0  0  0  0  0  0  0  0  0  0  0
   13.3687   34.8390   12.5776 C   0  0  1  0  0  0  0  0  0  0  0  0
   14.0673   35.8727   12.9117 O   0  0  0  0  0  0  0  0  0  0  0  0
   13.9867   33.8837   11.8253 C   0  0  2  0  0  0  0  0  0  0  0  0
   14.7018   34.2710   10.6884 C   0  0  0  0  0  0  0  0  0  0  0  0
   15.1446   33.4085    9.6953 C   0  0  0  0  0  0  0  0  0  0  0  0
   13.5849   32.5237   11.5584 C   0  0  0  0  0  0  0  0  0  0  0  0
   14.1449   31.7582   10.5849 C   0  0  0  0  0  0  0  0  0  0  0  0
   15.9606   34.0333    8.6766 F   0  0  0  0  0  0  0  0  0  0  0  0
   14.8642   32.1901    9.6474 C   0  0  0  0  0  0  0  0  0  0  0  0
  1  2  2  0
  3  2  1  6
  2  4  1  0
  3  5  1  0
  5  6  1  0
  3  7  1  0
  7  8  1  0
  6  9  1  0
  8  9  1  0
 10  8  1  1
 10 11  1  0
 10 12  1  0
 12 13  1  1
 11 14  1  0
 12 15  1  0
 14 16  1  0
 15 16  1  6
 15 17  1  0
 17 18  1  1
 17 19  1  0
 19 20  1  6
 20 21  1  0
 19 22  1  0
 22 23  1  0
 21 24  1  0
 21 25  1  0
 23 25  1  0
M  END
$$$$
88
     RDKit          3D

 25 27  0  0  0  0  0  0  0  0999 V2000
   13.5020   37.2241   21.2476 O   0  0  0  0  0  0  0  0  0  0  0  0
   14.1832   36.3143   20.6575 S   0  0  0  0  0  0  0  0  0  0  0  0
   14.6714   36.6998   19.1596 C   0  0  1  0  0  0  0  0  0  0  0  0
   15.4283   35.8155   21.3963 O   0  0  0  0  0  0  0  0  0  0  0  0
   13.2775   35.0132   20.5294 N   0  0  0  0  0  0  0  0  0  0  0  0
   13.2038   34.2663   19.2720 C   0  0  0  0  0  0  0  0  0  0  0  0
   15.4649   37.7112   19.0878 N   0  0  0  0  0  0  0  0  0  0  0  0
   14.6365   35.6413   18.2169 C   0  0  0  0  0  0  0  0  0  0  0  0
   13.8386   34.5624   18.1440 C   0  0  0  0  0  0  0  0  0  0  0  0
   12.3376   33.0758   19.3475 C   0  0  0  0  0  0  0  0  0  0  0  0
   13.7372   33.7413   16.9071 C   0  0  0  0  0  0  0  0  0  0  0  0
   12.1583   32.4038   18.1335 C   0  0  0  0  0  0  0  0  0  0  0  0
   12.8401   32.6678   17.0330 C   0  0  0  0  0  0  0  0  0  0  0  0
   14.4455   33.8782   15.6826 C   0  0  0  0  0  0  0  0  0  0  0  0
   15.2527   34.8926   15.6751 O   0  0  0  0  0  0  0  0  0  0  0  0
   14.0958   33.1848   14.6859 N   0  0  0  0  0  0  0  0  0  0  0  0
   13.3931   33.5364   13.5745 C   0  0  0  0  0  0  0  0  0  0  0  0
   13.2097   32.6834   12.4585 C   0  0  2  0  0  0  0  0  0  0  0  0
   13.4787   31.3602   12.6052 N   0  0  0  0  0  0  0  0  0  0  0  0
   12.9124   34.7981   13.6916 O   0  0  0  0  0  0  0  0  0  0  0  0
   13.6208   30.5427   11.4910 C   0  0  0  0  0  0  0  0  0  0  0  0
   13.9139   29.3621   11.5738 O   0  0  0  0  0  0  0  0  0  0  0  0
   13.1924   31.0370   10.2724 C   0  0  0  0  0  0  0  0  0  0  0  0
   12.9641   32.3560   10.0538 C   0  0  0  0  0  0  0  0  0  0  0  0
   12.9121   33.1953   11.2370 C   0  0  0  0  0  0  0  0  0  0  0  0
  1  2  2  0
  2  3  1  0
  2  4  2  0
  2  5  1  0
  5  6  1  0
  3  7  1  1
  3  8  1  0
  6  9  1  0
  8  9  1  0
  6 10  1  0
  9 11  1  0
 10 12  1  0
 11 13  1  0
 12 13  1  0
 11 14  1  0
 14 15  2  0
 14 16  1  0
 16 17  1  0
 18 17  1  6
 18 19  1  0
 17 20  2  0
 19 21  1  0
 21 22  2  0
 21 23  1  0
 23 24  1  0
 18 25  1  0
 24 25  1  0
M  END
$$$$
89
     RDKit          3D

 26 29  0  0  0  0  0  0  0  0999 V2000
   14.3059   37.3963   21.0499 N   0  0  0  0  0  0  0  0  0  0  0  0
   15.0801   36.8191   19.9811 C   0  0  0  0  0  0  0  0  0  0  0  0
   14.4992   35.7271   19.3427 N   0  0  0  0  0  0  0  0  0  0  0  0
   13.4316   35.3032   20.1946 C   0  0  2  0  0  0  0  0  0  0  0  0
   14.5579   35.3709   18.1311 C   0  0  0  0  0  0  0  0  0  0  0  0
   13.4282   36.2960   21.2544 C   0  0  0  0  0  0  0  0  0  0  0  0
   12.6487   34.0940   20.1141 C   0  0  0  0  0  0  0  0  0  0  0  0
   13.0521   33.3352   18.9717 C   0  0  1  0  0  0  0  0  0  0  0  0
   12.5413   36.3449   22.3040 O   0  0  0  0  0  0  0  0  0  0  0  0
   12.1259   32.5896   18.4128 O   0  0  0  0  0  0  0  0  0  0  0  0
   13.5640   34.2557   17.8032 C   0  0  1  0  0  0  0  0  0  0  0  0
   16.3029   37.3084   19.6346 O   0  0  0  0  0  0  0  0  0  0  0  0
   12.5208   34.6378   16.9828 O   0  0  0  0  0  0  0  0  0  0  0  0
   12.4574   33.9877   15.7801 C   0  0  1  0  0  0  0  0  0  0  0  0
   10.7097   33.1305   18.4718 C   0  0  0  0  0  0  0  0  0  0  0  0
   11.2655   33.7782   15.1288 C   0  0  1  0  0  0  0  0  0  0  0  0
   11.2291   33.0800   13.9077 C   0  0  0  0  0  0  0  0  0  0  0  0
   13.5643   33.5526   15.0332 C   0  0  2  0  0  0  0  0  0  0  0  0
    9.8495   33.8977   15.7546 C   0  0  0  0  0  0  0  0  0  0  0  0
   14.8588   33.9372   15.6395 F   0  0  0  0  0  0  0  0  0  0  0  0
    8.8686   34.3023   15.1674 O   0  0  0  0  0  0  0  0  0  0  0  0
   13.5522   32.9601   13.8625 C   0  0  0  0  0  0  0  0  0  0  0  0
   10.0227   33.1797   19.5637 O   0  0  0  0  0  0  0  0  0  0  0  0
    9.7082   33.7212   17.2399 C   0  0  0  0  0  0  0  0  0  0  0  0
   12.4236   32.6895   13.3169 C   0  0  2  0  0  0  0  0  0  0  0  0
   12.3728   31.9107   11.8199 Cl  0  0  0  0  0  0  0  0  0  0  0  0
  1  2  1  0
  2  3  1  0
  3  4  1  0
  3  5  1  0
  1  6  1  0
  4  6  1  0
  4  7  1  1
  8  7  1  1
  6  9  2  0
  8 10  1  0
 11  5  1  1
  8 11  1  0
  2 12  2  0
 11 13  1  0
 14 13  1  6
 10 15  1  0
 14 16  1  0
 16 17  1  1
 14 18  1  0
 16 19  1  0
 18 20  1  6
 19 21  2  0
 18 22  1  0
 15 23  1  0
 15 24  1  0
 19 24  1  0
 17 25  1  0
 22 25  1  0
 25 26  1  6
M  END
$$$$
9
     RDKit          3D

 17 19  0  0  0  0  0  0  0  0999 V2000
   13.8612   37.3445   11.6528 C   0  0  0  0  0  0  0  0  0  0  0  0
   12.7493   36.9400   12.0010 C   0  0  0  0  0  0  0  0  0  0  0  0
   12.4530   35.9068   12.6035 C   0  0  0  0  0  0  0  0  0  0  0  0
   13.4846   35.1809   12.8513 C   0  0  1  0  0  0  0  0  0  0  0  0
   14.8219   35.3698   12.5010 C   0  0  0  0  0  0  0  0  0  0  0  0
   11.0618   35.5428   13.0366 C   0  0  0  0  0  0  0  0  0  0  0  0
   15.0056   36.5869   11.7984 N   0  0  0  0  0  0  0  0  0  0  0  0
   10.1585   36.2163   12.6366 O   0  0  0  0  0  0  0  0  0  0  0  0
   13.1661   34.0265   13.7599 C   0  0  0  0  0  0  0  0  0  0  0  0
   14.2947   33.1690   14.1271 O   0  0  0  0  0  0  0  0  0  0  0  0
   10.8891   34.4617   13.9085 N   0  0  0  0  0  0  0  0  0  0  0  0
   11.9361   33.6907   14.2942 C   0  0  0  0  0  0  0  0  0  0  0  0
    9.6769   34.2345   14.6786 C   0  0  2  0  0  0  0  0  0  0  0  0
   11.5838   32.6256   15.1784 C   0  0  0  0  0  0  0  0  0  0  0  0
   10.0848   33.0683   15.5214 C   0  0  1  0  0  0  0  0  0  0  0  0
    8.6712   33.9485   13.7563 O   0  0  0  0  0  0  0  0  0  0  0  0
    9.2668   32.7323   16.6009 C   0  0  0  0  0  0  0  0  0  0  0  0
  1  2  1  0
  2  3  1  0
  3  4  1  0
  4  5  1  1
  3  6  1  0
  1  7  1  0
  5  7  1  0
  6  8  2  0
  4  9  1  0
  9 10  1  0
  6 11  1  0
  9 12  1  0
 11 12  1  0
 11 13  1  0
 12 14  1  0
 13 15  1  0
 14 15  1  0
 13 16  1  6
 15 17  1  1
M  END
$$$$
90
     RDKit          3D

 26 30  0  0  0  0  0  0  0  0999 V2000
   14.0587   37.3627   21.3545 O   0  0  0  0  0  0  0  0  0  0  0  0
   14.3886   36.4086   20.6095 S   0  0  0  0  0  0  0  0  0  0  0  0
   15.7244   35.8759   20.9518 O   0  0  0  0  0  0  0  0  0  0  0  0
   13.5411   35.2306   20.2447 N   0  0  0  0  0  0  0  0  0  0  0  0
   14.4614   37.1573   19.0264 C   0  0  2  0  0  0  0  0  0  0  0  0
   13.3219   34.5405   19.1099 C   0  0  1  0  0  0  0  0  0  0  0  0
   13.6792   35.1924   17.8748 C   0  0  0  0  0  0  0  0  0  0  0  0
   13.4054   34.5197   16.6173 C   0  0  1  0  0  0  0  0  0  0  0  0
   13.0134   33.1763   18.8978 C   0  0  0  0  0  0  0  0  0  0  0  0
   14.3236   36.4586   17.8902 N   0  0  0  0  0  0  0  0  0  0  0  0
   12.9569   33.2846   16.5647 C   0  0  0  0  0  0  0  0  0  0  0  0
   14.8521   38.4583   19.0736 O   0  0  0  0  0  0  0  0  0  0  0  0
   12.6938   32.5788   17.7865 C   0  0  0  0  0  0  0  0  0  0  0  0
   13.5709   35.2592   15.2778 C   0  0  0  0  0  0  0  0  0  0  0  0
   12.7366   32.7701   15.2492 C   0  0  0  0  0  0  0  0  0  0  0  0
   12.9555   33.4170   14.1472 C   0  0  2  0  0  0  0  0  0  0  0  0
   13.2625   34.6247   14.1446 C   0  0  2  0  0  0  0  0  0  0  0  0
   13.4531   35.2517   12.7703 C   0  0  0  0  0  0  0  0  0  0  0  0
   12.7724   32.8101   12.7639 C   0  0  1  0  0  0  0  0  0  0  0  0
   12.9765   33.4478   11.6550 C   0  0  1  0  0  0  0  0  0  0  0  0
   12.6636   31.3371   12.6284 C   0  0  0  0  0  0  0  0  0  0  0  0
   13.2561   34.6210   11.6960 C   0  0  0  0  0  0  0  0  0  0  0  0
   13.0031   30.6837   11.6071 C   0  0  0  0  0  0  0  0  0  0  0  0
   13.1428   29.2614   11.5502 O   0  0  0  0  0  0  0  0  0  0  0  0
   13.1428   31.3654   10.3643 C   0  0  0  0  0  0  0  0  0  0  0  0
   13.1805   32.6898   10.3503 C   0  0  0  0  0  0  0  0  0  0  0  0
  1  2  2  0
  2  3  2  0
  2  4  1  0
  2  5  1  0
  4  6  1  0
  6  7  1  0
  7  8  1  0
  6  9  1  1
  5 10  1  0
  7 10  1  0
  8 11  1  0
  5 12  1  6
  9 13  1  0
 11 13  1  0
  8 14  1  1
 11 15  1  0
 16 15  1  1
 17 14  1  1
 16 17  1  0
 17 18  1  0
 16 19  1  0
 19 20  1  0
 19 21  1  1
 18 22  1  0
 20 22  1  1
 21 23  2  0
 23 24  1  0
 23 25  1  0
 20 26  1  0
 25 26  1  0
M  END
$$$$
91
     RDKit          3D

 26 30  0  0  0  0  0  0  0  0999 V2000
   14.3059   37.3963   21.0499 O   0  0  0  0  0  0  0  0  0  0  0  0
   14.4523   36.3292   20.2948 S   0  0  0  0  0  0  0  0  0  0  0  0
   14.2420   36.3041   18.6054 C   0  0  0  0  0  0  0  0  0  0  0  0
   13.4115   35.0819   20.6214 N   0  0  0  0  0  0  0  0  0  0  0  0
   13.2949   34.1873   19.5400 C   0  0  1  0  0  0  0  0  0  0  0  0
   15.9286   36.0634   20.6664 O   0  0  0  0  0  0  0  0  0  0  0  0
   12.5488   33.0914   19.4231 C   0  0  0  0  0  0  0  0  0  0  0  0
   13.4337   35.0398   18.3250 C   0  0  2  0  0  0  0  0  0  0  0  0
   13.1657   34.2844   17.1866 C   0  0  2  0  0  0  0  0  0  0  0  0
   13.4229   34.9928   15.8605 C   0  0  0  0  0  0  0  0  0  0  0  0
   12.1175   32.5169   18.2473 C   0  0  0  0  0  0  0  0  0  0  0  0
   12.4008   33.2810   17.0012 C   0  0  2  0  0  0  0  0  0  0  0  0
   12.9689   34.4949   14.6536 C   0  0  0  0  0  0  0  0  0  0  0  0
   13.3791   35.1305   13.4263 C   0  0  1  0  0  0  0  0  0  0  0  0
   11.9066   32.7824   15.8049 C   0  0  0  0  0  0  0  0  0  0  0  0
   12.1175   33.4660   14.6122 C   0  0  2  0  0  0  0  0  0  0  0  0
   11.5647   32.8694   13.3682 C   0  0  2  0  0  0  0  0  0  0  0  0
   14.2481   36.2295   13.4044 O   0  0  0  0  0  0  0  0  0  0  0  0
   10.6364   31.7955   13.3427 C   0  0  0  0  0  0  0  0  0  0  0  0
   13.4613   34.2947   12.2864 C   0  0  1  0  0  0  0  0  0  0  0  0
   14.5031   36.7439   12.1925 C   0  0  0  0  0  0  0  0  0  0  0  0
   10.2383   31.2354   12.2257 O   0  0  0  0  0  0  0  0  0  0  0  0
   12.3191   33.2413   12.2051 C   0  0  0  0  0  0  0  0  0  0  0  0
    9.8409   31.6870   14.4588 O   0  0  0  0  0  0  0  0  0  0  0  0
   13.5602   34.8989   11.0491 O   0  0  0  0  0  0  0  0  0  0  0  0
   14.7617   35.8107   11.0919 C   0  0  0  0  0  0  0  0  0  0  0  0
  1  2  2  0
  2  3  1  0
  2  4  1  0
  4  5  1  0
  2  6  2  0
  5  7  1  6
  8  3  1  6
  5  8  1  0
  8  9  1  0
  9 10  1  6
  7 11  1  0
  9 12  1  0
 12 11  1  6
 10 13  1  0
 13 14  1  0
 12 15  1  0
 13 16  1  0
 16 15  1  6
 16 17  1  0
 14 18  1  1
 17 19  1  1
 14 20  1  0
 18 21  1  0
 19 22  2  0
 17 23  1  0
 20 23  1  6
 19 24  1  0
 20 25  1  0
 21 26  1  0
 25 26  1  0
M  END
$$$$
92
     RDKit          3D

 26 28  0  0  0  0  0  0  0  0999 V2000
   14.2416   37.5517   20.2016 O   0  0  0  0  0  0  0  0  0  0  0  0
   14.6682   36.4807   19.8442 C   0  0  0  0  0  0  0  0  0  0  0  0
   13.6986   35.5497   19.3490 C   0  0  2  0  0  0  0  0  0  0  0  0
   15.9303   36.4127   19.3203 O   0  0  0  0  0  0  0  0  0  0  0  0
   13.1421   34.6481   20.3964 C   0  0  0  0  0  0  0  0  0  0  0  0
   12.2881   33.5994   20.0130 C   0  0  0  0  0  0  0  0  0  0  0  0
   13.2603   35.2135   18.0414 C   0  0  0  0  0  0  0  0  0  0  0  0
   12.4795   34.2231   17.6542 C   0  0  0  0  0  0  0  0  0  0  0  0
   11.9150   33.4359   18.6707 C   0  0  0  0  0  0  0  0  0  0  0  0
   12.1889   33.9572   16.2632 C   0  0  1  0  0  0  0  0  0  0  0  0
   11.1156   33.0621   15.9865 C   0  0  0  0  0  0  0  0  0  0  0  0
   12.7989   34.6731   15.1475 C   0  0  1  0  0  0  0  0  0  0  0  0
   13.8670   35.3072   15.2198 O   0  0  0  0  0  0  0  0  0  0  0  0
   10.7267   32.8961   14.5539 C   0  0  0  0  0  0  0  0  0  0  0  0
   12.5530   34.2128   13.7779 C   0  0  1  0  0  0  0  0  0  0  0  0
   11.4817   33.3386   13.5422 C   0  0  0  0  0  0  0  0  0  0  0  0
   13.3687   34.8390   12.5776 C   0  0  1  0  0  0  0  0  0  0  0  0
   14.0673   35.8727   12.9117 O   0  0  0  0  0  0  0  0  0  0  0  0
   13.9867   33.8837   11.8253 C   0  0  2  0  0  0  0  0  0  0  0  0
   14.7018   34.2710   10.6884 C   0  0  0  0  0  0  0  0  0  0  0  0
   15.1446   33.4085    9.6953 C   0  0  0  0  0  0  0  0  0  0  0  0
   13.5849   32.5237   11.5584 C   0  0  0  0  0  0  0  0  0  0  0  0
   15.8971   33.9180    8.5893 O   0  0  0  0  0  0  0  0  0  0  0  0
   14.0730   31.6276   10.6995 C   0  0  0  0  0  0  0  0  0  0  0  0
   14.8580   32.1048    9.7358 C   0  0  0  0  0  0  0  0  0  0  0  0
   15.5794   33.4305    7.2822 C   0  0  0  0  0  0  0  0  0  0  0  0
  1  2  2  0
  3  2  1  6
  2  4  1  0
  3  5  1  0
  5  6  1  0
  3  7  1  0
  7  8  1  0
  6  9  1  0
  8  9  1  0
 10  8  1  1
 10 11  1  0
 10 12  1  0
 12 13  1  1
 11 14  1  0
 12 15  1  0
 14 16  1  0
 15 16  1  6
 15 17  1  0
 17 18  1  1
 17 19  1  0
 19 20  1  6
 20 21  1  0
 19 22  1  0
 21 23  1  0
 22 24  1  0
 21 25  1  0
 24 25  1  0
 23 26  1  0
M  END
$$$$
93
     RDKit          3D

 26 29  0  0  0  0  0  0  0  0999 V2000
   14.0587   37.3627   21.3545 O   0  0  0  0  0  0  0  0  0  0  0  0
   14.3886   36.4086   20.6095 S   0  0  0  0  0  0  0  0  0  0  0  0
   15.7244   35.8759   20.9518 O   0  0  0  0  0  0  0  0  0  0  0  0
   13.5411   35.2306   20.2447 N   0  0  0  0  0  0  0  0  0  0  0  0
   14.4614   37.1573   19.0264 C   0  0  2  0  0  0  0  0  0  0  0  0
   13.3219   34.5405   19.1099 C   0  0  1  0  0  0  0  0  0  0  0  0
   13.6792   35.1924   17.8748 C   0  0  0  0  0  0  0  0  0  0  0  0
   13.4054   34.5197   16.6173 C   0  0  1  0  0  0  0  0  0  0  0  0
   13.0134   33.1763   18.8978 C   0  0  0  0  0  0  0  0  0  0  0  0
   14.3236   36.4586   17.8902 N   0  0  0  0  0  0  0  0  0  0  0  0
   12.9569   33.2846   16.5647 C   0  0  0  0  0  0  0  0  0  0  0  0
   14.8521   38.4583   19.0736 O   0  0  0  0  0  0  0  0  0  0  0  0
   12.6938   32.5788   17.7865 C   0  0  0  0  0  0  0  0  0  0  0  0
   13.5709   35.2592   15.2778 C   0  0  0  0  0  0  0  0  0  0  0  0
   12.7366   32.7701   15.2492 C   0  0  0  0  0  0  0  0  0  0  0  0
   12.9555   33.4170   14.1472 C   0  0  2  0  0  0  0  0  0  0  0  0
   13.2625   34.6247   14.1446 C   0  0  2  0  0  0  0  0  0  0  0  0
   13.4531   35.2517   12.7703 C   0  0  2  0  0  0  0  0  0  0  0  0
   12.7724   32.8101   12.7639 C   0  0  2  0  0  0  0  0  0  0  0  0
   13.8823   36.7130   12.8625 F   0  0  0  0  0  0  0  0  0  0  0  0
   13.1874   35.0006   11.6956 C   0  0  0  0  0  0  0  0  0  0  0  0
   12.8905   33.5318   11.6161 C   0  0  1  0  0  0  0  0  0  0  0  0
   12.9084   32.8493   10.3116 O   0  0  0  0  0  0  0  0  0  0  0  0
   12.3429   31.4491   12.5643 O   0  0  0  0  0  0  0  0  0  0  0  0
   14.0424   32.2678    9.7626 C   0  0  0  0  0  0  0  0  0  0  0  0
   12.9763   30.4361   12.5851 C   0  0  0  0  0  0  0  0  0  0  0  0
  1  2  2  0
  2  3  2  0
  2  4  1  0
  2  5  1  0
  4  6  1  0
  6  7  1  0
  7  8  1  0
  6  9  1  1
  5 10  1  0
  7 10  1  0
  8 11  1  0
  5 12  1  6
  9 13  1  0
 11 13  1  0
  8 14  1  1
 11 15  1  0
 16 15  1  1
 17 14  1  1
 16 17  1  0
 17 18  1  0
 16 19  1  0
 18 20  1  1
 18 21  1  0
 19 22  1  0
 21 22  1  0
 22 23  1  6
 19 24  1  1
 23 25  1  0
 24 26  1  0
M  END
$$$$
94
     RDKit          3D

 26 30  0  0  0  0  0  0  0  0999 V2000
   14.3059   37.3963   21.0499 O   0  0  0  0  0  0  0  0  0  0  0  0
   14.4523   36.3292   20.2948 S   0  0  0  0  0  0  0  0  0  0  0  0
   14.2420   36.3041   18.6054 C   0  0  0  0  0  0  0  0  0  0  0  0
   13.4115   35.0819   20.6214 N   0  0  0  0  0  0  0  0  0  0  0  0
   13.2949   34.1873   19.5400 C   0  0  1  0  0  0  0  0  0  0  0  0
   15.9286   36.0634   20.6664 O   0  0  0  0  0  0  0  0  0  0  0  0
   12.5488   33.0914   19.4231 C   0  0  0  0  0  0  0  0  0  0  0  0
   13.4337   35.0398   18.3250 C   0  0  2  0  0  0  0  0  0  0  0  0
   13.1657   34.2844   17.1866 C   0  0  2  0  0  0  0  0  0  0  0  0
   13.4229   34.9928   15.8605 C   0  0  0  0  0  0  0  0  0  0  0  0
   12.1175   32.5169   18.2473 C   0  0  0  0  0  0  0  0  0  0  0  0
   12.4008   33.2810   17.0012 C   0  0  2  0  0  0  0  0  0  0  0  0
   11.9438   32.7071   15.8222 C   0  0  0  0  0  0  0  0  0  0  0  0
   13.0421   34.4642   14.6949 C   0  0  1  0  0  0  0  0  0  0  0  0
   11.1811   31.5670   15.7745 O   0  0  0  0  0  0  0  0  0  0  0  0
   12.2878   33.3436   14.6882 C   0  0  1  0  0  0  0  0  0  0  0  0
   11.0554   31.3767   14.4828 C   0  0  0  0  0  0  0  0  0  0  0  0
   13.3932   35.1911   13.5287 O   0  0  0  0  0  0  0  0  0  0  0  0
   12.5629   36.1106   12.8896 C   0  0  0  0  0  0  0  0  0  0  0  0
   10.4167   30.3427   13.8654 C   0  0  0  0  0  0  0  0  0  0  0  0
   11.6524   32.3747   13.7429 C   0  0  1  0  0  0  0  0  0  0  0  0
   11.5524   32.6531   12.3339 C   0  0  1  0  0  0  0  0  0  0  0  0
   12.0641   33.7038   11.7072 O   0  0  0  0  0  0  0  0  0  0  0  0
   11.2999   31.4952   11.5643 C   0  0  0  0  0  0  0  0  0  0  0  0
   10.5640   30.3711   12.3080 C   0  0  0  0  0  0  0  0  0  0  0  0
   12.0183   33.7597   10.3605 C   0  0  0  0  0  0  0  0  0  0  0  0
  1  2  2  0
  2  3  1  0
  2  4  1  0
  4  5  1  0
  2  6  2  0
  5  7  1  6
  8  3  1  6
  5  8  1  0
  8  9  1  0
  9 10  1  6
  7 11  1  0
  9 12  1  0
 12 11  1  1
 12 13  1  0
 10 14  1  0
 13 15  1  0
 16 13  1  1
 14 16  1  0
 15 17  1  0
 14 18  1  6
 18 19  1  0
 17 20  1  0
 16 21  1  0
 21 17  1  1
 21 22  1  0
 22 23  1  6
 22 24  1  0
 20 25  1  0
 24 25  1  0
 23 26  1  0
M  END
$$$$
95
     RDKit          3D

 26 28  0  0  0  0  0  0  0  0999 V2000
   14.9044   36.6646   21.3127 C   0  0  0  0  0  0  0  0  0  0  0  0
   14.1324   35.6102   21.0406 C   0  0  0  0  0  0  0  0  0  0  0  0
   15.1087   37.3851   20.1207 N   0  0  0  0  0  0  0  0  0  0  0  0
   13.9488   35.3581   19.6461 C   0  0  2  0  0  0  0  0  0  0  0  0
   14.5524   36.5916   19.0882 C   0  0  0  0  0  0  0  0  0  0  0  0
   13.1941   34.3943   18.9381 C   0  0  2  0  0  0  0  0  0  0  0  0
   13.2038   34.3955   17.5269 C   0  0  0  0  0  0  0  0  0  0  0  0
   12.5236   33.4554   16.7346 C   0  0  1  0  0  0  0  0  0  0  0  0
   13.9884   35.3875   16.7910 O   0  0  0  0  0  0  0  0  0  0  0  0
   11.5471   32.6697   17.4209 O   0  0  0  0  0  0  0  0  0  0  0  0
   10.6390   33.2965   18.2593 C   0  0  2  0  0  0  0  0  0  0  0  0
   12.1567   33.9510   15.5142 N   0  0  0  0  0  0  0  0  0  0  0  0
    9.4183   33.7331   17.6982 C   0  0  0  0  0  0  0  0  0  0  0  0
   12.6756   33.7058   14.2847 C   0  0  0  0  0  0  0  0  0  0  0  0
   12.0477   34.1744   19.8043 C   0  0  0  0  0  0  0  0  0  0  0  0
   10.9064   33.6584   19.5264 C   0  0  2  0  0  0  0  0  0  0  0  0
   10.1147   33.1973   20.5459 O   0  0  0  0  0  0  0  0  0  0  0  0
   13.3968   32.6585   14.0296 O   0  0  0  0  0  0  0  0  0  0  0  0
   12.7190   34.6004   13.1328 C   0  0  2  0  0  0  0  0  0  0  0  0
   11.9871   35.7339   13.2148 C   0  0  0  0  0  0  0  0  0  0  0  0
   12.0383   36.7178   12.1953 C   0  0  0  0  0  0  0  0  0  0  0  0
   13.2968   34.3645   11.8774 C   0  0  2  0  0  0  0  0  0  0  0  0
   14.1178   33.1082   11.6271 O   0  0  0  0  0  0  0  0  0  0  0  0
   12.7363   36.4668   11.1114 C   0  0  0  0  0  0  0  0  0  0  0  0
   13.4100   35.3296   10.9021 C   0  0  0  0  0  0  0  0  0  0  0  0
   14.4309   32.8404   10.3529 C   0  0  0  0  0  0  0  0  0  0  0  0
  1  2  1  0
  1  3  1  0
  4  2  1  1
  3  5  1  0
  4  5  1  0
  4  6  1  0
  6  7  1  0
  7  8  1  0
  7  9  1  0
  8 10  1  0
 10 11  1  0
  8 12  1  6
 11 13  1  6
 12 14  1  0
  6 15  1  6
 11 16  1  0
 15 16  1  0
 16 17  1  1
 14 18  2  0
 19 14  1  6
 19 20  1  0
 20 21  1  0
 19 22  1  0
 22 23  1  1
 21 24  1  0
 22 25  1  0
 24 25  1  0
 23 26  1  0
M  END
$$$$
96
     RDKit          3D

 26 31  0  0  0  0  0  0  0  0999 V2000
   15.5264   37.3056   20.5482 N   0  0  0  0  0  0  0  0  0  0  0  0
   14.3323   36.7974   20.7227 C   0  0  0  0  0  0  0  0  0  0  0  0
   13.9344   35.7518   19.8117 C   0  0  2  0  0  0  0  0  0  0  0  0
   15.9141   36.8613   19.2277 N   0  0  0  0  0  0  0  0  0  0  0  0
   13.3807   37.1882   21.7859 O   0  0  0  0  0  0  0  0  0  0  0  0
   15.0713   35.9976   18.7447 C   0  0  1  0  0  0  0  0  0  0  0  0
   15.1227   35.2376   17.4789 C   0  0  0  0  0  0  0  0  0  0  0  0
   16.0381   35.4080   16.6166 N   0  0  0  0  0  0  0  0  0  0  0  0
   12.9859   34.8688   19.4676 C   0  0  2  0  0  0  0  0  0  0  0  0
   14.0424   34.2986   17.3559 C   0  0  0  0  0  0  0  0  0  0  0  0
   11.9641   34.5899   20.4596 C   0  0  0  0  0  0  0  0  0  0  0  0
   13.0505   34.0920   18.3286 C   0  0  2  0  0  0  0  0  0  0  0  0
   14.0666   33.5854   16.0579 C   0  0  2  0  0  0  0  0  0  0  0  0
   13.1483   32.7113   15.7620 N   0  0  0  0  0  0  0  0  0  0  0  0
   11.9458   33.0823   18.1682 C   0  0  2  0  0  0  0  0  0  0  0  0
   12.0936   32.5509   16.7634 C   0  0  1  0  0  0  0  0  0  0  0  0
   11.0465   32.8816   19.0366 C   0  0  0  0  0  0  0  0  0  0  0  0
   11.1210   31.8277   16.0799 C   0  0  0  0  0  0  0  0  0  0  0  0
   11.0393   33.5877   20.2085 C   0  0  0  0  0  0  0  0  0  0  0  0
   11.6356   31.4673   14.8212 C   0  0  0  0  0  0  0  0  0  0  0  0
   12.7823   32.1533   14.6389 N   0  0  0  0  0  0  0  0  0  0  0  0
   15.1916   33.8038   15.1210 N   0  0  0  0  0  0  0  0  0  0  0  0
   16.0462   34.6014   15.4959 C   0  0  0  0  0  0  0  0  0  0  0  0
   11.1341   30.5664   13.7909 C   0  0  0  0  0  0  0  0  0  0  0  0
   10.5141   31.0782   12.8040 O   0  0  0  0  0  0  0  0  0  0  0  0
   11.5894   29.3684   13.8027 O   0  0  0  0  0  0  0  0  0  0  0  0
  1  2  1  0
  3  2  1  6
  1  4  1  0
  2  5  1  0
  3  6  1  0
  6  4  1  1
  6  7  1  0
  7  8  1  0
  3  9  1  0
  7 10  1  0
  9 11  1  1
  9 12  1  0
 12 10  1  6
 10 13  1  0
 13 14  1  0
 12 15  1  0
 14 16  1  0
 15 16  1  0
 15 17  1  6
 16 18  1  6
 11 19  1  0
 17 19  1  0
 18 20  1  0
 14 21  1  0
 20 21  1  0
 13 22  1  1
  8 23  1  0
 22 23  1  0
 20 24  1  0
 24 25  1  0
 24 26  2  0
M  END
$$$$
97
     RDKit          3D

 26 30  0  0  0  0  0  0  0  0999 V2000
   10.3865   32.8448   20.0220 C   0  0  0  0  0  0  0  0  0  0  0  0
   10.5425   32.9587   18.6913 C   0  0  2  0  0  0  0  0  0  0  0  0
   11.7721   33.2439   18.1133 C   0  0  1  0  0  0  0  0  0  0  0  0
   12.9377   33.5135   18.9569 C   0  0  0  0  0  0  0  0  0  0  0  0
   12.7772   33.4877   20.3511 C   0  0  0  0  0  0  0  0  0  0  0  0
   11.4776   33.1836   20.8980 C   0  0  0  0  0  0  0  0  0  0  0  0
   11.9708   33.2098   16.6734 C   0  0  2  0  0  0  0  0  0  0  0  0
   14.2569   33.8377   18.3117 C   0  0  0  0  0  0  0  0  0  0  0  0
   10.9341   32.9089   15.8018 C   0  0  0  0  0  0  0  0  0  0  0  0
   13.2437   33.3591   16.0837 C   0  0  2  0  0  0  0  0  0  0  0  0
    9.5737   32.9207   16.1132 C   0  0  0  0  0  0  0  0  0  0  0  0
   15.1157   34.3233   19.0744 O   0  0  0  0  0  0  0  0  0  0  0  0
    9.4008   32.8539   17.7187 C   0  0  0  0  0  0  0  0  0  0  0  0
   14.3035   33.7966   16.9830 N   0  0  0  0  0  0  0  0  0  0  0  0
   11.2539   32.5894   14.4241 C   0  0  1  0  0  0  0  0  0  0  0  0
   10.3023   32.2459   13.4517 C   0  0  0  0  0  0  0  0  0  0  0  0
   13.5412   33.2708   14.7747 C   0  0  0  0  0  0  0  0  0  0  0  0
   10.6836   31.7483   12.2331 C   0  0  0  0  0  0  0  0  0  0  0  0
    9.6710   31.4222   11.2461 O   0  0  0  0  0  0  0  0  0  0  0  0
   12.5587   32.7891   13.9246 C   0  0  0  0  0  0  0  0  0  0  0  0
   12.0047   31.9623   11.7669 N   0  0  0  0  0  0  0  0  0  0  0  0
   12.7781   32.4464   12.5634 C   0  0  0  0  0  0  0  0  0  0  0  0
   14.1388   32.6628   12.1845 O   0  0  0  0  0  0  0  0  0  0  0  0
   12.1893   31.4513   10.2978 C   0  0  0  0  0  0  0  0  0  0  0  0
   13.5793   30.8322   10.2732 C   0  0  0  0  0  0  0  0  0  0  0  0
   13.4520   29.6810    9.4854 O   0  0  0  0  0  0  0  0  0  0  0  0
  2  1  1  1
  2  3  1  0
  3  4  1  1
  4  5  1  0
  1  6  1  0
  5  6  1  0
  3  7  1  0
  4  8  1  0
  7  9  1  1
  7 10  1  0
  9 11  1  0
  8 12  2  0
  2 13  1  0
 11 13  1  0
  8 14  1  0
 10 14  1  0
  9 15  1  0
 15 16  1  6
 10 17  1  6
 16 18  1  0
 18 19  2  0
 15 20  1  0
 17 20  1  0
 18 21  1  0
 20 22  1  0
 21 22  1  0
 22 23  2  0
 21 24  1  0
 24 25  1  0
 25 26  1  0
M  END
$$$$
98
     RDKit          3D

 26 29  0  0  0  0  0  0  0  0999 V2000
   14.3059   37.3963   21.0499 O   0  0  0  0  0  0  0  0  0  0  0  0
   14.4523   36.3292   20.2948 S   0  0  0  0  0  0  0  0  0  0  0  0
   14.2420   36.3041   18.6054 C   0  0  0  0  0  0  0  0  0  0  0  0
   13.4115   35.0819   20.6214 N   0  0  0  0  0  0  0  0  0  0  0  0
   13.2949   34.1873   19.5400 C   0  0  1  0  0  0  0  0  0  0  0  0
   15.9286   36.0634   20.6664 O   0  0  0  0  0  0  0  0  0  0  0  0
   12.5488   33.0914   19.4231 C   0  0  0  0  0  0  0  0  0  0  0  0
   13.4337   35.0398   18.3250 C   0  0  2  0  0  0  0  0  0  0  0  0
   13.1657   34.2844   17.1866 C   0  0  2  0  0  0  0  0  0  0  0  0
   13.4229   34.9928   15.8605 C   0  0  0  0  0  0  0  0  0  0  0  0
   12.1175   32.5169   18.2473 C   0  0  0  0  0  0  0  0  0  0  0  0
   12.4008   33.2810   17.0012 C   0  0  2  0  0  0  0  0  0  0  0  0
   12.9689   34.4949   14.6536 C   0  0  0  0  0  0  0  0  0  0  0  0
   13.3791   35.1305   13.4263 C   0  0  0  0  0  0  0  0  0  0  0  0
   11.9066   32.7824   15.8049 C   0  0  0  0  0  0  0  0  0  0  0  0
   14.2981   34.6649   12.6255 O   0  0  0  0  0  0  0  0  0  0  0  0
   13.4126   36.4822   13.4936 O   0  0  0  0  0  0  0  0  0  0  0  0
   14.5533   34.7982   11.4952 C   0  0  2  0  0  0  0  0  0  0  0  0
   11.0834   31.6146   15.7567 O   0  0  0  0  0  0  0  0  0  0  0  0
   12.1776   33.4051   14.5941 C   0  0  0  0  0  0  0  0  0  0  0  0
   10.5850   31.5794   14.3739 C   0  0  0  0  0  0  0  0  0  0  0  0
   11.5698   32.7057   13.4403 C   0  0  0  0  0  0  0  0  0  0  0  0
   14.5749   33.7284   10.5392 C   0  0  0  0  0  0  0  0  0  0  0  0
   14.3794   32.4161   10.9562 O   0  0  0  0  0  0  0  0  0  0  0  0
   14.9515   33.8555    9.2803 O   0  0  0  0  0  0  0  0  0  0  0  0
   15.6810   35.6716   11.0922 C   0  0  0  0  0  0  0  0  0  0  0  0
  1  2  2  0
  2  3  1  0
  2  4  1  0
  4  5  1  0
  2  6  2  0
  5  7  1  6
  8  3  1  6
  5  8  1  0
  8  9  1  0
  9 10  1  6
  7 11  1  0
  9 12  1  0
 12 11  1  6
 10 13  1  0
 13 14  1  0
 12 15  1  0
 14 16  1  0
 14 17  2  0
 16 18  1  0
 15 19  1  0
 13 20  1  0
 15 20  1  0
 19 21  1  0
 20 22  1  0
 21 22  1  0
 18 23  1  0
 23 24  1  0
 23 25  2  0
 18 26  1  1
M  END
$$$$
99
     RDKit          3D

 26 27  0  0  0  0  0  0  0  0999 V2000
   14.7242   37.9432   18.9816 O   0  0  0  0  0  0  0  0  0  0  0  0
   14.6736   36.8347   19.3784 S   0  0  0  0  0  0  0  0  0  0  0  0
   14.1436   36.6336   20.8292 N   0  0  0  0  0  0  0  0  0  0  0  0
   16.0951   36.1422   19.2195 O   0  0  0  0  0  0  0  0  0  0  0  0
   13.7745   35.7960   18.4711 C   0  0  0  0  0  0  0  0  0  0  0  0
   13.3530   34.4682   18.8567 C   0  0  0  0  0  0  0  0  0  0  0  0
   12.7939   33.7053   18.1913 C   0  0  2  0  0  0  0  0  0  0  0  0
   13.1930   35.9361   17.1178 C   0  0  0  0  0  0  0  0  0  0  0  0
   12.3350   33.9743   17.1056 C   0  0  1  0  0  0  0  0  0  0  0  0
   12.5252   35.0503   16.4341 C   0  0  1  0  0  0  0  0  0  0  0  0
   12.3761   32.1240   18.9436 Cl  0  0  0  0  0  0  0  0  0  0  0  0
   11.5155   32.7999   16.2998 O   0  0  0  0  0  0  0  0  0  0  0  0
   12.0213   35.4510   15.1008 C   0  0  0  0  0  0  0  0  0  0  0  0
   11.4152   36.5665   14.9039 O   0  0  0  0  0  0  0  0  0  0  0  0
   10.1937   33.0199   15.9822 C   0  0  0  0  0  0  0  0  0  0  0  0
    9.3033   33.2329   17.0385 C   0  0  0  0  0  0  0  0  0  0  0  0
   12.3012   34.7907   13.9601 N   0  0  0  0  0  0  0  0  0  0  0  0
   13.1079   33.6197   13.9791 C   0  0  0  0  0  0  0  0  0  0  0  0
   11.9538   35.3207   12.6680 C   0  0  0  0  0  0  0  0  0  0  0  0
   12.8226   35.3670   11.8398 C   0  0  2  0  0  0  0  0  0  0  0  0
   12.6080   36.0073   10.5820 C   0  0  0  0  0  0  0  0  0  0  0  0
   13.5424   34.0952   11.5626 C   0  0  0  0  0  0  0  0  0  0  0  0
   12.4189   37.3164   10.5666 O   0  0  0  0  0  0  0  0  0  0  0  0
   13.7752   33.2486   12.7418 C   0  0  0  0  0  0  0  0  0  0  0  0
   14.3158   32.0993   12.6384 O   0  0  0  0  0  0  0  0  0  0  0  0
   12.5453   35.4650    9.4327 O   0  0  0  0  0  0  0  0  0  0  0  0
  1  2  2  0
  2  3  1  0
  2  4  2  0
  2  5  1  0
  5  6  1  0
  6  7  1  0
  5  8  1  0
  7  9  1  0
  8 10  1  0
  9 10  1  0
  7 11  1  1
  9 12  1  6
 10 13  1  1
 13 14  2  0
 12 15  1  0
 15 16  1  0
 13 17  1  0
 17 18  1  0
 17 19  1  0
 19 20  1  0
 20 21  1  6
 20 22  1  0
 21 23  1  0
 18 24  1  0
 22 24  1  0
 24 25  2  0
 21 26  2  0
M  END
$$$$
